


                                __________________________________________
                               |                                          |
                               | NUMERICAL ELECTROMAGNETICS CODE (nec2++) |
                               | Translated to 'C++' in Double Precision  |
                               |              Version 1.0.4 [2004-11-23]              |
                               |__________________________________________|



                               ---------------- COMMENTS ----------------
                                NEC Input File Bi-Quad for 2440 MHz, Trevor Marshall, 9/1/2001
                                All data in wavelengths,will scale to 300MHz
                                Square copper reflector,w/w choke,modelled as 0.05 lamda mesh
                               



                                -------- STRUCTURE SPECIFICATION --------
                                COORDINATES MUST BE INPUT IN
                                METERS OR BE SCALED TO METERS
                                BEFORE STRUCTURE INPUT IS ENDED
  WIRE                                                                                 SEG FIRST  LAST  TAG
   No:        X1         Y1         Z1         X2         Y2         Z2       RADIUS   No:   SEG   SEG  No:

     1      0.0000    -0.4500    -0.4500     0.0000    -0.4500    -0.4000     0.0082     1     1     1    0
     2      0.0000    -0.4500    -0.4500     0.0000    -0.4000    -0.4500     0.0082     1     2     2    0
     THE STRUCTURE HAS BEEN MOVED, MOVE DATA CARD IS:
     0    17    0.00000    0.00000    0.00000    0.00000    0.00000    0.05000    0.00000
     3      0.0000    -0.4500     0.4500     0.0000    -0.4000     0.4500     0.0082     1    37    37    0
     THE STRUCTURE HAS BEEN MOVED, MOVE DATA CARD IS:
     0    17    0.00000    0.00000    0.00000    0.00000    0.05000    0.00000    0.00000
     4      0.0000     0.4500     0.4500     0.0000     0.4500    -0.4500     0.0082    18   667   684    0
     5      0.0500    -0.4500    -0.4500     0.0500    -0.4500     0.4500     0.0082    18   685   702    0
     6      0.1000    -0.4500    -0.4500     0.1000    -0.4500     0.4500     0.0082    18   703   720    0
     7      0.1500    -0.4500    -0.4500     0.1500    -0.4500     0.4500     0.0082    18   721   738    0
     8      0.2000    -0.4500    -0.4500     0.2000    -0.4500     0.4500     0.0082    18   739   756    0
     9      0.2500    -0.4500    -0.4500     0.2500    -0.4500     0.4500     0.0082    18   757   774    0
    10      0.0500     0.4500    -0.4500     0.0500     0.4500     0.4500     0.0082    18   775   792    0
    11      0.1000     0.4500    -0.4500     0.1000     0.4500     0.4500     0.0082    18   793   810    0
    12      0.1500     0.4500    -0.4500     0.1500     0.4500     0.4500     0.0082    18   811   828    0
    13      0.2000     0.4500    -0.4500     0.2000     0.4500     0.4500     0.0082    18   829   846    0
    14      0.2500     0.4500    -0.4500     0.2500     0.4500     0.4500     0.0082    18   847   864    0
    15      0.0000    -0.4500    -0.4500     0.2500    -0.4500    -0.4500     0.0082     5   865   869    0
    16      0.0000    -0.4500    -0.4000     0.2500    -0.4500    -0.4000     0.0082     5   870   874    0
    17      0.0000    -0.4500    -0.3500     0.2500    -0.4500    -0.3500     0.0082     5   875   879    0
    18      0.0000    -0.4500    -0.3000     0.2500    -0.4500    -0.3000     0.0082     5   880   884    0
    19      0.0000    -0.4500    -0.2500     0.2500    -0.4500    -0.2500     0.0082     5   885   889    0
    20      0.0000    -0.4500    -0.2000     0.2500    -0.4500    -0.2000     0.0082     5   890   894    0
    21      0.0000    -0.4500    -0.1500     0.2500    -0.4500    -0.1500     0.0082     5   895   899    0
    22      0.0000    -0.4500    -0.1000     0.2500    -0.4500    -0.1000     0.0082     5   900   904    0
    23      0.0000    -0.4500    -0.0500     0.2500    -0.4500    -0.0500     0.0082     5   905   909    0
    24      0.0000    -0.4500     0.0000     0.2500    -0.4500     0.0000     0.0082     5   910   914    0
    25      0.0000    -0.4500     0.0500     0.2500    -0.4500     0.0500     0.0082     5   915   919    0
    26      0.0000    -0.4500     0.1000     0.2500    -0.4500     0.1000     0.0082     5   920   924    0
    27      0.0000    -0.4500     0.1500     0.2500    -0.4500     0.1500     0.0082     5   925   929    0
    28      0.0000    -0.4500     0.2000     0.2500    -0.4500     0.2000     0.0082     5   930   934    0
    29      0.0000    -0.4500     0.2500     0.2500    -0.4500     0.2500     0.0082     5   935   939    0
    30      0.0000    -0.4500     0.3000     0.2500    -0.4500     0.3000     0.0082     5   940   944    0
    31      0.0000    -0.4500     0.3500     0.2500    -0.4500     0.3500     0.0082     5   945   949    0
    32      0.0000    -0.4500     0.4000     0.2500    -0.4500     0.4000     0.0082     5   950   954    0
    33      0.0000    -0.4500     0.4500     0.2500    -0.4500     0.4500     0.0082     5   955   959    0
    34      0.0000     0.4500    -0.4500     0.2500     0.4500    -0.4500     0.0082     5   960   964    0
    35      0.0000     0.4500    -0.4000     0.2500     0.4500    -0.4000     0.0082     5   965   969    0
    36      0.0000     0.4500    -0.3500     0.2500     0.4500    -0.3500     0.0082     5   970   974    0
    37      0.0000     0.4500    -0.3000     0.2500     0.4500    -0.3000     0.0082     5   975   979    0
    38      0.0000     0.4500    -0.2500     0.2500     0.4500    -0.2500     0.0082     5   980   984    0
    39      0.0000     0.4500    -0.2000     0.2500     0.4500    -0.2000     0.0082     5   985   989    0
    40      0.0000     0.4500    -0.1500     0.2500     0.4500    -0.1500     0.0082     5   990   994    0
    41      0.0000     0.4500    -0.1000     0.2500     0.4500    -0.1000     0.0082     5   995   999    0
    42      0.0000     0.4500    -0.0500     0.2500     0.4500    -0.0500     0.0082     5  1000  1004    0
    43      0.0000     0.4500     0.0000     0.2500     0.4500     0.0000     0.0082     5  1005  1009    0
    44      0.0000     0.4500     0.0500     0.2500     0.4500     0.0500     0.0082     5  1010  1014    0
    45      0.0000     0.4500     0.1000     0.2500     0.4500     0.1000     0.0082     5  1015  1019    0
    46      0.0000     0.4500     0.1500     0.2500     0.4500     0.1500     0.0082     5  1020  1024    0
    47      0.0000     0.4500     0.2000     0.2500     0.4500     0.2000     0.0082     5  1025  1029    0
    48      0.0000     0.4500     0.2500     0.2500     0.4500     0.2500     0.0082     5  1030  1034    0
    49      0.0000     0.4500     0.3000     0.2500     0.4500     0.3000     0.0082     5  1035  1039    0
    50      0.0000     0.4500     0.3500     0.2500     0.4500     0.3500     0.0082     5  1040  1044    0
    51      0.0000     0.4500     0.4000     0.2500     0.4500     0.4000     0.0082     5  1045  1049    0
    52      0.0000     0.4500     0.4500     0.2500     0.4500     0.4500     0.0082     5  1050  1054    0
    53      0.1221     0.0050     0.0000     0.1221     0.1820     0.1820     0.0048    11  1055  1065    1
    54      0.1221     0.1820     0.1820     0.1221     0.0000     0.3640     0.0048    11  1066  1076    2
    55      0.1221     0.0000     0.3640     0.1221    -0.1820     0.1820     0.0048    11  1077  1087    3
    56      0.1221    -0.1820     0.1820     0.1221    -0.0050     0.0000     0.0048    11  1088  1098    4
    57      0.1221    -0.0050     0.0000     0.1221    -0.1820    -0.1820     0.0048    11  1099  1109    5
    58      0.1221    -0.1820    -0.1820     0.1221     0.0000    -0.3640     0.0048    11  1110  1120    6
    59      0.1221     0.0000    -0.3640     0.1221     0.1820    -0.1820     0.0048    11  1121  1131    7
    60      0.1221     0.1820    -0.1820     0.1221     0.0050     0.0000     0.0048    11  1132  1142    8
    61      0.1221    -0.0050     0.0000     0.1221     0.0050     0.0000     0.0048     1  1143  1143    9

     TOTAL SEGMENTS USED: 1143   SEGMENTS IN A SYMMETRIC CELL: 1143   SYMMETRY FLAG: 0

    ---------- MULTIPLE WIRE JUNCTIONS ----------
    JUNCTION  SEGMENTS (- FOR END 1, + FOR END 2)
       1         -1   -2 -865
       2          1   -3   -4 -870
       3          2  -38  -39
       4          3   -5   -6 -875
       5          4   38  -40  -41
       6          5   -7   -8 -880
       7          6   40  -42  -43
       8          7   -9  -10 -885
       9          8   42  -44  -45
      10          9  -11  -12 -890
      11         10   44  -46  -47
      12         11  -13  -14 -895
      13         12   46  -48  -49
      14         13  -15  -16 -900
      15         14   48  -50  -51
      16         15  -17  -18 -905
      17         16   50  -52  -53
      18         17  -19  -20 -910
      19         18   52  -54  -55
      20         19  -21  -22 -915
      21         20   54  -56  -57
      22         21  -23  -24 -920
      23         22   56  -58  -59
      24         23  -25  -26 -925
      25         24   58  -60  -61
      26         25  -27  -28 -930
      27         26   60  -62  -63
      28         27  -29  -30 -935
      29         28   62  -64  -65
      30         29  -31  -32 -940
      31         30   64  -66  -67
      32         31  -33  -34 -945
      33         32   66  -68  -69
      34         33  -35  -36 -950
      35         34   68  -70  -71
      36         35  -37 -955
      37         36   70  -72  -73
      38         37   72  -74
      39         39  -75  -76
      40         41   75  -77  -78
      41         43   77  -79  -80
      42         45   79  -81  -82
      43         47   81  -83  -84
      44         49   83  -85  -86
      45         51   85  -87  -88
      46         53   87  -89  -90
      47         55   89  -91  -92
      48         57   91  -93  -94
      49         59   93  -95  -96
      50         61   95  -97  -98
      51         63   97  -99 -100
      52         65   99 -101 -102
      53         67  101 -103 -104
      54         69  103 -105 -106
      55         71  105 -107 -108
      56         73  107 -109 -110
      57         74  109 -111
      58         76 -112 -113
      59         78  112 -114 -115
      60         80  114 -116 -117
      61         82  116 -118 -119
      62         84  118 -120 -121
      63         86  120 -122 -123
      64         88  122 -124 -125
      65         90  124 -126 -127
      66         92  126 -128 -129
      67         94  128 -130 -131
      68         96  130 -132 -133
      69         98  132 -134 -135
      70        100  134 -136 -137
      71        102  136 -138 -139
      72        104  138 -140 -141
      73        106  140 -142 -143
      74        108  142 -144 -145
      75        110  144 -146 -147
      76        111  146 -148
      77        113 -149 -150
      78        115  149 -151 -152
      79        117  151 -153 -154
      80        119  153 -155 -156
      81        121  155 -157 -158
      82        123  157 -159 -160
      83        125  159 -161 -162
      84        127  161 -163 -164
      85        129  163 -165 -166
      86        131  165 -167 -168
      87        133  167 -169 -170
      88        135  169 -171 -172
      89        137  171 -173 -174
      90        139  173 -175 -176
      91        141  175 -177 -178
      92        143  177 -179 -180
      93        145  179 -181 -182
      94        147  181 -183 -184
      95        148  183 -185
      96        150 -186 -187
      97        152  186 -188 -189
      98        154  188 -190 -191
      99        156  190 -192 -193
     100        158  192 -194 -195
     101        160  194 -196 -197
     102        162  196 -198 -199
     103        164  198 -200 -201
     104        166  200 -202 -203
     105        168  202 -204 -205
     106        170  204 -206 -207
     107        172  206 -208 -209
     108        174  208 -210 -211
     109        176  210 -212 -213
     110        178  212 -214 -215
     111        180  214 -216 -217
     112        182  216 -218 -219
     113        184  218 -220 -221
     114        185  220 -222
     115        187 -223 -224
     116        189  223 -225 -226
     117        191  225 -227 -228
     118        193  227 -229 -230
     119        195  229 -231 -232
     120        197  231 -233 -234
     121        199  233 -235 -236
     122        201  235 -237 -238
     123        203  237 -239 -240
     124        205  239 -241 -242
     125        207  241 -243 -244
     126        209  243 -245 -246
     127        211  245 -247 -248
     128        213  247 -249 -250
     129        215  249 -251 -252
     130        217  251 -253 -254
     131        219  253 -255 -256
     132        221  255 -257 -258
     133        222  257 -259
     134        224 -260 -261
     135        226  260 -262 -263
     136        228  262 -264 -265
     137        230  264 -266 -267
     138        232  266 -268 -269
     139        234  268 -270 -271
     140        236  270 -272 -273
     141        238  272 -274 -275
     142        240  274 -276 -277
     143        242  276 -278 -279
     144        244  278 -280 -281
     145        246  280 -282 -283
     146        248  282 -284 -285
     147        250  284 -286 -287
     148        252  286 -288 -289
     149        254  288 -290 -291
     150        256  290 -292 -293
     151        258  292 -294 -295
     152        259  294 -296
     153        261 -297 -298
     154        263  297 -299 -300
     155        265  299 -301 -302
     156        267  301 -303 -304
     157        269  303 -305 -306
     158        271  305 -307 -308
     159        273  307 -309 -310
     160        275  309 -311 -312
     161        277  311 -313 -314
     162        279  313 -315 -316
     163        281  315 -317 -318
     164        283  317 -319 -320
     165        285  319 -321 -322
     166        287  321 -323 -324
     167        289  323 -325 -326
     168        291  325 -327 -328
     169        293  327 -329 -330
     170        295  329 -331 -332
     171        296  331 -333
     172        298 -334 -335
     173        300  334 -336 -337
     174        302  336 -338 -339
     175        304  338 -340 -341
     176        306  340 -342 -343
     177        308  342 -344 -345
     178        310  344 -346 -347
     179        312  346 -348 -349
     180        314  348 -350 -351
     181        316  350 -352 -353
     182        318  352 -354 -355
     183        320  354 -356 -357
     184        322  356 -358 -359
     185        324  358 -360 -361
     186        326  360 -362 -363
     187        328  362 -364 -365
     188        330  364 -366 -367
     189        332  366 -368 -369
     190        333  368 -370
     191        335 -371 -372
     192        337  371 -373 -374
     193        339  373 -375 -376
     194        341  375 -377 -378
     195        343  377 -379 -380
     196        345  379 -381 -382
     197        347  381 -383 -384
     198        349  383 -385 -386
     199        351  385 -387 -388
     200        353  387 -389 -390
     201        355  389 -391 -392
     202        357  391 -393 -394
     203        359  393 -395 -396
     204        361  395 -397 -398
     205        363  397 -399 -400
     206        365  399 -401 -402
     207        367  401 -403 -404
     208        369  403 -405 -406
     209        370  405 -407
     210        372 -408 -409
     211        374  408 -410 -411
     212        376  410 -412 -413
     213        378  412 -414 -415
     214        380  414 -416 -417
     215        382  416 -418 -419
     216        384  418 -420 -421
     217        386  420 -422 -423
     218        388  422 -424 -425
     219        390  424 -426 -427
     220        392  426 -428 -429
     221        394  428 -430 -431
     222        396  430 -432 -433
     223        398  432 -434 -435
     224        400  434 -436 -437
     225        402  436 -438 -439
     226        404  438 -440 -441
     227        406  440 -442 -443
     228        407  442 -444
     229        409 -445 -446
     230        411  445 -447 -448
     231        413  447 -449 -450
     232        415  449 -451 -452
     233        417  451 -453 -454
     234        419  453 -455 -456
     235        421  455 -457 -458
     236        423  457 -459 -460
     237        425  459 -461 -462
     238        427  461 -463 -464
     239        429  463 -465 -466
     240        431  465 -467 -468
     241        433  467 -469 -470
     242        435  469 -471 -472
     243        437  471 -473 -474
     244        439  473 -475 -476
     245        441  475 -477 -478
     246        443  477 -479 -480
     247        444  479 -481
     248        446 -482 -483
     249        448  482 -484 -485
     250        450  484 -486 -487
     251        452  486 -488 -489
     252        454  488 -490 -491
     253        456  490 -492 -493
     254        458  492 -494 -495
     255        460  494 -496 -497
     256        462  496 -498 -499
     257        464  498 -500 -501
     258        466  500 -502 -503
     259        468  502 -504 -505
     260        470  504 -506 -507
     261        472  506 -508 -509
     262        474  508 -510 -511
     263        476  510 -512 -513
     264        478  512 -514 -515
     265        480  514 -516 -517
     266        481  516 -518
     267        483 -519 -520
     268        485  519 -521 -522
     269        487  521 -523 -524
     270        489  523 -525 -526
     271        491  525 -527 -528
     272        493  527 -529 -530
     273        495  529 -531 -532
     274        497  531 -533 -534
     275        499  533 -535 -536
     276        501  535 -537 -538
     277        503  537 -539 -540
     278        505  539 -541 -542
     279        507  541 -543 -544
     280        509  543 -545 -546
     281        511  545 -547 -548
     282        513  547 -549 -550
     283        515  549 -551 -552
     284        517  551 -553 -554
     285        518  553 -555
     286        520 -556 -557
     287        522  556 -558 -559
     288        524  558 -560 -561
     289        526  560 -562 -563
     290        528  562 -564 -565
     291        530  564 -566 -567
     292        532  566 -568 -569
     293        534  568 -570 -571
     294        536  570 -572 -573
     295        538  572 -574 -575
     296        540  574 -576 -577
     297        542  576 -578 -579
     298        544  578 -580 -581
     299        546  580 -582 -583
     300        548  582 -584 -585
     301        550  584 -586 -587
     302        552  586 -588 -589
     303        554  588 -590 -591
     304        555  590 -592
     305        557 -593 -594
     306        559  593 -595 -596
     307        561  595 -597 -598
     308        563  597 -599 -600
     309        565  599 -601 -602
     310        567  601 -603 -604
     311        569  603 -605 -606
     312        571  605 -607 -608
     313        573  607 -609 -610
     314        575  609 -611 -612
     315        577  611 -613 -614
     316        579  613 -615 -616
     317        581  615 -617 -618
     318        583  617 -619 -620
     319        585  619 -621 -622
     320        587  621 -623 -624
     321        589  623 -625 -626
     322        591  625 -627 -628
     323        592  627 -629
     324        594 -630 -631
     325        596  630 -632 -633
     326        598  632 -634 -635
     327        600  634 -636 -637
     328        602  636 -638 -639
     329        604  638 -640 -641
     330        606  640 -642 -643
     331        608  642 -644 -645
     332        610  644 -646 -647
     333        612  646 -648 -649
     334        614  648 -650 -651
     335        616  650 -652 -653
     336        618  652 -654 -655
     337        620  654 -656 -657
     338        622  656 -658 -659
     339        624  658 -660 -661
     340        626  660 -662 -663
     341        628  662 -664 -665
     342        629  664 -666
     343        631  684 -960
     344        633  683 -684 -965
     345        635  682 -683 -970
     346        637  681 -682 -975
     347        639  680 -681 -980
     348        641  679 -680 -985
     349        643  678 -679 -990
     350        645  677 -678 -995
     351        647  676 -677-1000
     352        649  675 -676-1005
     353        651  674 -675-1010
     354        653  673 -674-1015
     355        655  672 -673-1020
     356        657  671 -672-1025
     357        659  670 -671-1030
     358        661  669 -670-1035
     359        663  668 -669-1040
     360        665  667 -668-1045
     361        666 -667-1050
     362       -685  865 -866
     363        685 -686  870 -871
     364        686 -687  875 -876
     365        687 -688  880 -881
     366        688 -689  885 -886
     367        689 -690  890 -891
     368        690 -691  895 -896
     369        691 -692  900 -901
     370        692 -693  905 -906
     371        693 -694  910 -911
     372        694 -695  915 -916
     373        695 -696  920 -921
     374        696 -697  925 -926
     375        697 -698  930 -931
     376        698 -699  935 -936
     377        699 -700  940 -941
     378        700 -701  945 -946
     379        701 -702  950 -951
     380        702  955 -956
     381       -703  866 -867
     382        703 -704  871 -872
     383        704 -705  876 -877
     384        705 -706  881 -882
     385        706 -707  886 -887
     386        707 -708  891 -892
     387        708 -709  896 -897
     388        709 -710  901 -902
     389        710 -711  906 -907
     390        711 -712  911 -912
     391        712 -713  916 -917
     392        713 -714  921 -922
     393        714 -715  926 -927
     394        715 -716  931 -932
     395        716 -717  936 -937
     396        717 -718  941 -942
     397        718 -719  946 -947
     398        719 -720  951 -952
     399        720  956 -957
     400       -721  867 -868
     401        721 -722  872 -873
     402        722 -723  877 -878
     403        723 -724  882 -883
     404        724 -725  887 -888
     405        725 -726  892 -893
     406        726 -727  897 -898
     407        727 -728  902 -903
     408        728 -729  907 -908
     409        729 -730  912 -913
     410        730 -731  917 -918
     411        731 -732  922 -923
     412        732 -733  927 -928
     413        733 -734  932 -933
     414        734 -735  937 -938
     415        735 -736  942 -943
     416        736 -737  947 -948
     417        737 -738  952 -953
     418        738  957 -958
     419       -739  868 -869
     420        739 -740  873 -874
     421        740 -741  878 -879
     422        741 -742  883 -884
     423        742 -743  888 -889
     424        743 -744  893 -894
     425        744 -745  898 -899
     426        745 -746  903 -904
     427        746 -747  908 -909
     428        747 -748  913 -914
     429        748 -749  918 -919
     430        749 -750  923 -924
     431        750 -751  928 -929
     432        751 -752  933 -934
     433        752 -753  938 -939
     434        753 -754  943 -944
     435        754 -755  948 -949
     436        755 -756  953 -954
     437        756  958 -959
     438        757 -758  874
     439        758 -759  879
     440        759 -760  884
     441        760 -761  889
     442        761 -762  894
     443        762 -763  899
     444        763 -764  904
     445        764 -765  909
     446        765 -766  914
     447        766 -767  919
     448        767 -768  924
     449        768 -769  929
     450        769 -770  934
     451        770 -771  939
     452        771 -772  944
     453        772 -773  949
     454        773 -774  954
     455       -775  960 -961
     456        775 -776  965 -966
     457        776 -777  970 -971
     458        777 -778  975 -976
     459        778 -779  980 -981
     460        779 -780  985 -986
     461        780 -781  990 -991
     462        781 -782  995 -996
     463        782 -783 1000-1001
     464        783 -784 1005-1006
     465        784 -785 1010-1011
     466        785 -786 1015-1016
     467        786 -787 1020-1021
     468        787 -788 1025-1026
     469        788 -789 1030-1031
     470        789 -790 1035-1036
     471        790 -791 1040-1041
     472        791 -792 1045-1046
     473        792 1050-1051
     474       -793  961 -962
     475        793 -794  966 -967
     476        794 -795  971 -972
     477        795 -796  976 -977
     478        796 -797  981 -982
     479        797 -798  986 -987
     480        798 -799  991 -992
     481        799 -800  996 -997
     482        800 -801 1001-1002
     483        801 -802 1006-1007
     484        802 -803 1011-1012
     485        803 -804 1016-1017
     486        804 -805 1021-1022
     487        805 -806 1026-1027
     488        806 -807 1031-1032
     489        807 -808 1036-1037
     490        808 -809 1041-1042
     491        809 -810 1046-1047
     492        810 1051-1052
     493       -811  962 -963
     494        811 -812  967 -968
     495        812 -813  972 -973
     496        813 -814  977 -978
     497        814 -815  982 -983
     498        815 -816  987 -988
     499        816 -817  992 -993
     500        817 -818  997 -998
     501        818 -819 1002-1003
     502        819 -820 1007-1008
     503        820 -821 1012-1013
     504        821 -822 1017-1018
     505        822 -823 1022-1023
     506        823 -824 1027-1028
     507        824 -825 1032-1033
     508        825 -826 1037-1038
     509        826 -827 1042-1043
     510        827 -828 1047-1048
     511        828 1052-1053
     512       -829  963 -964
     513        829 -830  968 -969
     514        830 -831  973 -974
     515        831 -832  978 -979
     516        832 -833  983 -984
     517        833 -834  988 -989
     518        834 -835  993 -994
     519        835 -836  998 -999
     520        836 -837 1003-1004
     521        837 -838 1008-1009
     522        838 -839 1013-1014
     523        839 -840 1018-1019
     524        840 -841 1023-1024
     525        841 -842 1028-1029
     526        842 -843 1033-1034
     527        843 -844 1038-1039
     528        844 -845 1043-1044
     529        845 -846 1048-1049
     530        846 1053-1054
     531        847 -848  969
     532        848 -849  974
     533        849 -850  979
     534        850 -851  984
     535        851 -852  989
     536        852 -853  994
     537        853 -854  999
     538        854 -855 1004
     539        855 -856 1009
     540        856 -857 1014
     541        857 -858 1019
     542        858 -859 1024
     543        859 -860 1029
     544        860 -861 1034
     545        861 -862 1039
     546        862 -863 1044
     547        863 -864 1049
     548      -1055 1142 1143
     549       1098-1099-1143


                               ---------- SEGMENTATION DATA ----------
                                        COORDINATES IN METERS
                            I+ AND I- INDICATE THE SEGMENTS BEFORE AND AFTER I

   SEG    COORDINATES OF SEGM CENTER     SEGM    ORIENTATION ANGLES    WIRE    CONNECTION DATA   TAG
   No:       X         Y         Z      LENGTH     ALPHA      BETA    RADIUS    I-     I    I+   NO:
     1    0.0000   -0.4500   -0.4250    0.0500   90.0000    0.0000    0.0082    -2     1     3     0
     2    0.0000   -0.4250   -0.4500    0.0500    0.0000   90.0000    0.0082  -865     2    38     0
     3    0.0000   -0.4500   -0.3750    0.0500   90.0000    0.0000    0.0082    -4     3     5     0
     4    0.0000   -0.4250   -0.4000    0.0500    0.0000   90.0000    0.0082  -870     4   -38     0
     5    0.0000   -0.4500   -0.3250    0.0500   90.0000    0.0000    0.0082    -6     5     7     0
     6    0.0000   -0.4250   -0.3500    0.0500   -0.0000   90.0000    0.0082  -875     6   -40     0
     7    0.0000   -0.4500   -0.2750    0.0500   90.0000    0.0000    0.0082    -8     7     9     0
     8    0.0000   -0.4250   -0.3000    0.0500    0.0000   90.0000    0.0082  -880     8   -42     0
     9    0.0000   -0.4500   -0.2250    0.0500   90.0000    0.0000    0.0082   -10     9    11     0
    10    0.0000   -0.4250   -0.2500    0.0500    0.0000   90.0000    0.0082  -885    10   -44     0
    11    0.0000   -0.4500   -0.1750    0.0500   90.0000    0.0000    0.0082   -12    11    13     0
    12    0.0000   -0.4250   -0.2000    0.0500    0.0000   90.0000    0.0082  -890    12   -46     0
    13    0.0000   -0.4500   -0.1250    0.0500   90.0000    0.0000    0.0082   -14    13    15     0
    14    0.0000   -0.4250   -0.1500    0.0500   -0.0000   90.0000    0.0082  -895    14   -48     0
    15    0.0000   -0.4500   -0.0750    0.0500   90.0000    0.0000    0.0082   -16    15    17     0
    16    0.0000   -0.4250   -0.1000    0.0500   -0.0000   90.0000    0.0082  -900    16   -50     0
    17    0.0000   -0.4500   -0.0250    0.0500   90.0000    0.0000    0.0082   -18    17    19     0
    18    0.0000   -0.4250   -0.0500    0.0500   -0.0000   90.0000    0.0082  -905    18   -52     0
    19    0.0000   -0.4500    0.0250    0.0500   90.0000    0.0000    0.0082   -20    19    21     0
    20    0.0000   -0.4250   -0.0000    0.0500   -0.0000   90.0000    0.0082  -910    20   -54     0
    21    0.0000   -0.4500    0.0750    0.0500   90.0000    0.0000    0.0082   -22    21    23     0
    22    0.0000   -0.4250    0.0500    0.0500   -0.0000   90.0000    0.0082  -915    22   -56     0
    23    0.0000   -0.4500    0.1250    0.0500   90.0000    0.0000    0.0082   -24    23    25     0
    24    0.0000   -0.4250    0.1000    0.0500   -0.0000   90.0000    0.0082  -920    24   -58     0
    25    0.0000   -0.4500    0.1750    0.0500   90.0000    0.0000    0.0082   -26    25    27     0
    26    0.0000   -0.4250    0.1500    0.0500   -0.0000   90.0000    0.0082  -925    26   -60     0
    27    0.0000   -0.4500    0.2250    0.0500   90.0000    0.0000    0.0082   -28    27    29     0
    28    0.0000   -0.4250    0.2000    0.0500    0.0000   90.0000    0.0082  -930    28   -62     0
    29    0.0000   -0.4500    0.2750    0.0500   90.0000    0.0000    0.0082   -30    29    31     0
    30    0.0000   -0.4250    0.2500    0.0500    0.0000   90.0000    0.0082  -935    30   -64     0
    31    0.0000   -0.4500    0.3250    0.0500   90.0000    0.0000    0.0082   -32    31    33     0
    32    0.0000   -0.4250    0.3000    0.0500    0.0000   90.0000    0.0082  -940    32   -66     0
    33    0.0000   -0.4500    0.3750    0.0500   90.0000    0.0000    0.0082   -34    33    35     0
    34    0.0000   -0.4250    0.3500    0.0500   -0.0000   90.0000    0.0082  -945    34   -68     0
    35    0.0000   -0.4500    0.4250    0.0500   90.0000    0.0000    0.0082   -36    35    37     0
    36    0.0000   -0.4250    0.4000    0.0500    0.0000   90.0000    0.0082  -950    36   -70     0
    37    0.0000   -0.4250    0.4500    0.0500    0.0000   90.0000    0.0082  -955    37   -72     0
    38    0.0000   -0.4000   -0.4250    0.0500   90.0000   90.0000    0.0082   -39    38    40     0
    39    0.0000   -0.3750   -0.4500    0.0500    0.0000   90.0000    0.0082     2    39    75     0
    40    0.0000   -0.4000   -0.3750    0.0500   90.0000    0.0000    0.0082   -41    40    42     0
    41    0.0000   -0.3750   -0.4000    0.0500    0.0000   90.0000    0.0082     4    41   -75     0
    42    0.0000   -0.4000   -0.3250    0.0500   90.0000    0.0000    0.0082   -43    42    44     0
    43    0.0000   -0.3750   -0.3500    0.0500    0.0000   90.0000    0.0082     6    43   -77     0
    44    0.0000   -0.4000   -0.2750    0.0500   90.0000    0.0000    0.0082   -45    44    46     0
    45    0.0000   -0.3750   -0.3000    0.0500    0.0000   90.0000    0.0082     8    45   -79     0
    46    0.0000   -0.4000   -0.2250    0.0500   90.0000    0.0000    0.0082   -47    46    48     0
    47    0.0000   -0.3750   -0.2500    0.0500    0.0000   90.0000    0.0082    10    47   -81     0
    48    0.0000   -0.4000   -0.1750    0.0500   90.0000    0.0000    0.0082   -49    48    50     0
    49    0.0000   -0.3750   -0.2000    0.0500    0.0000   90.0000    0.0082    12    49   -83     0
    50    0.0000   -0.4000   -0.1250    0.0500   90.0000    0.0000    0.0082   -51    50    52     0
    51    0.0000   -0.3750   -0.1500    0.0500    0.0000   90.0000    0.0082    14    51   -85     0
    52    0.0000   -0.4000   -0.0750    0.0500   90.0000    0.0000    0.0082   -53    52    54     0
    53    0.0000   -0.3750   -0.1000    0.0500    0.0000   90.0000    0.0082    16    53   -87     0
    54    0.0000   -0.4000   -0.0250    0.0500   90.0000    0.0000    0.0082   -55    54    56     0
    55    0.0000   -0.3750   -0.0500    0.0500    0.0000   90.0000    0.0082    18    55   -89     0
    56    0.0000   -0.4000    0.0250    0.0500   90.0000    0.0000    0.0082   -57    56    58     0
    57    0.0000   -0.3750   -0.0000    0.0500    0.0000   90.0000    0.0082    20    57   -91     0
    58    0.0000   -0.4000    0.0750    0.0500   90.0000    0.0000    0.0082   -59    58    60     0
    59    0.0000   -0.3750    0.0500    0.0500    0.0000   90.0000    0.0082    22    59   -93     0
    60    0.0000   -0.4000    0.1250    0.0500   90.0000    0.0000    0.0082   -61    60    62     0
    61    0.0000   -0.3750    0.1000    0.0500    0.0000   90.0000    0.0082    24    61   -95     0
    62    0.0000   -0.4000    0.1750    0.0500   90.0000    0.0000    0.0082   -63    62    64     0
    63    0.0000   -0.3750    0.1500    0.0500    0.0000   90.0000    0.0082    26    63   -97     0
    64    0.0000   -0.4000    0.2250    0.0500   90.0000    0.0000    0.0082   -65    64    66     0
    65    0.0000   -0.3750    0.2000    0.0500    0.0000   90.0000    0.0082    28    65   -99     0
    66    0.0000   -0.4000    0.2750    0.0500   90.0000    0.0000    0.0082   -67    66    68     0
    67    0.0000   -0.3750    0.2500    0.0500    0.0000   90.0000    0.0082    30    67  -101     0
    68    0.0000   -0.4000    0.3250    0.0500   90.0000    0.0000    0.0082   -69    68    70     0
    69    0.0000   -0.3750    0.3000    0.0500    0.0000   90.0000    0.0082    32    69  -103     0
    70    0.0000   -0.4000    0.3750    0.0500   90.0000    0.0000    0.0082   -71    70    72     0
    71    0.0000   -0.3750    0.3500    0.0500    0.0000   90.0000    0.0082    34    71  -105     0
    72    0.0000   -0.4000    0.4250    0.0500   90.0000  -90.0000    0.0082   -73    72    74     0
    73    0.0000   -0.3750    0.4000    0.0500    0.0000   90.0000    0.0082    36    73  -107     0
    74    0.0000   -0.3750    0.4500    0.0500    0.0000   90.0000    0.0082    37    74  -109     0
    75    0.0000   -0.3500   -0.4250    0.0500   90.0000    0.0000    0.0082   -76    75    77     0
    76    0.0000   -0.3250   -0.4500    0.0500    0.0000   90.0000    0.0082    39    76   112     0
    77    0.0000   -0.3500   -0.3750    0.0500   90.0000    0.0000    0.0082   -78    77    79     0
    78    0.0000   -0.3250   -0.4000    0.0500    0.0000   90.0000    0.0082    41    78  -112     0
    79    0.0000   -0.3500   -0.3250    0.0500   90.0000    0.0000    0.0082   -80    79    81     0
    80    0.0000   -0.3250   -0.3500    0.0500    0.0000   90.0000    0.0082    43    80  -114     0
    81    0.0000   -0.3500   -0.2750    0.0500   90.0000    0.0000    0.0082   -82    81    83     0
    82    0.0000   -0.3250   -0.3000    0.0500    0.0000   90.0000    0.0082    45    82  -116     0
    83    0.0000   -0.3500   -0.2250    0.0500   90.0000    0.0000    0.0082   -84    83    85     0
    84    0.0000   -0.3250   -0.2500    0.0500    0.0000   90.0000    0.0082    47    84  -118     0
    85    0.0000   -0.3500   -0.1750    0.0500   90.0000    0.0000    0.0082   -86    85    87     0
    86    0.0000   -0.3250   -0.2000    0.0500    0.0000   90.0000    0.0082    49    86  -120     0
    87    0.0000   -0.3500   -0.1250    0.0500   90.0000    0.0000    0.0082   -88    87    89     0
    88    0.0000   -0.3250   -0.1500    0.0500    0.0000   90.0000    0.0082    51    88  -122     0
    89    0.0000   -0.3500   -0.0750    0.0500   90.0000    0.0000    0.0082   -90    89    91     0
    90    0.0000   -0.3250   -0.1000    0.0500    0.0000   90.0000    0.0082    53    90  -124     0
    91    0.0000   -0.3500   -0.0250    0.0500   90.0000    0.0000    0.0082   -92    91    93     0
    92    0.0000   -0.3250   -0.0500    0.0500    0.0000   90.0000    0.0082    55    92  -126     0
    93    0.0000   -0.3500    0.0250    0.0500   90.0000    0.0000    0.0082   -94    93    95     0
    94    0.0000   -0.3250   -0.0000    0.0500    0.0000   90.0000    0.0082    57    94  -128     0
    95    0.0000   -0.3500    0.0750    0.0500   90.0000    0.0000    0.0082   -96    95    97     0
    96    0.0000   -0.3250    0.0500    0.0500    0.0000   90.0000    0.0082    59    96  -130     0
    97    0.0000   -0.3500    0.1250    0.0500   90.0000    0.0000    0.0082   -98    97    99     0
    98    0.0000   -0.3250    0.1000    0.0500    0.0000   90.0000    0.0082    61    98  -132     0
    99    0.0000   -0.3500    0.1750    0.0500   90.0000    0.0000    0.0082  -100    99   101     0
   100    0.0000   -0.3250    0.1500    0.0500    0.0000   90.0000    0.0082    63   100  -134     0
   101    0.0000   -0.3500    0.2250    0.0500   90.0000    0.0000    0.0082  -102   101   103     0
   102    0.0000   -0.3250    0.2000    0.0500    0.0000   90.0000    0.0082    65   102  -136     0
   103    0.0000   -0.3500    0.2750    0.0500   90.0000    0.0000    0.0082  -104   103   105     0
   104    0.0000   -0.3250    0.2500    0.0500    0.0000   90.0000    0.0082    67   104  -138     0
   105    0.0000   -0.3500    0.3250    0.0500   90.0000    0.0000    0.0082  -106   105   107     0
   106    0.0000   -0.3250    0.3000    0.0500    0.0000   90.0000    0.0082    69   106  -140     0
   107    0.0000   -0.3500    0.3750    0.0500   90.0000    0.0000    0.0082  -108   107   109     0
   108    0.0000   -0.3250    0.3500    0.0500    0.0000   90.0000    0.0082    71   108  -142     0
   109    0.0000   -0.3500    0.4250    0.0500   90.0000    0.0000    0.0082  -110   109   111     0
   110    0.0000   -0.3250    0.4000    0.0500    0.0000   90.0000    0.0082    73   110  -144     0
   111    0.0000   -0.3250    0.4500    0.0500    0.0000   90.0000    0.0082    74   111  -146     0
   112    0.0000   -0.3000   -0.4250    0.0500   90.0000    0.0000    0.0082  -113   112   114     0
   113    0.0000   -0.2750   -0.4500    0.0500    0.0000   90.0000    0.0082    76   113   149     0
   114    0.0000   -0.3000   -0.3750    0.0500   90.0000    0.0000    0.0082  -115   114   116     0
   115    0.0000   -0.2750   -0.4000    0.0500    0.0000   90.0000    0.0082    78   115  -149     0
   116    0.0000   -0.3000   -0.3250    0.0500   90.0000    0.0000    0.0082  -117   116   118     0
   117    0.0000   -0.2750   -0.3500    0.0500    0.0000   90.0000    0.0082    80   117  -151     0
   118    0.0000   -0.3000   -0.2750    0.0500   90.0000    0.0000    0.0082  -119   118   120     0
   119    0.0000   -0.2750   -0.3000    0.0500    0.0000   90.0000    0.0082    82   119  -153     0
   120    0.0000   -0.3000   -0.2250    0.0500   90.0000    0.0000    0.0082  -121   120   122     0
   121    0.0000   -0.2750   -0.2500    0.0500    0.0000   90.0000    0.0082    84   121  -155     0
   122    0.0000   -0.3000   -0.1750    0.0500   90.0000    0.0000    0.0082  -123   122   124     0
   123    0.0000   -0.2750   -0.2000    0.0500    0.0000   90.0000    0.0082    86   123  -157     0
   124    0.0000   -0.3000   -0.1250    0.0500   90.0000    0.0000    0.0082  -125   124   126     0
   125    0.0000   -0.2750   -0.1500    0.0500    0.0000   90.0000    0.0082    88   125  -159     0
   126    0.0000   -0.3000   -0.0750    0.0500   90.0000    0.0000    0.0082  -127   126   128     0
   127    0.0000   -0.2750   -0.1000    0.0500    0.0000   90.0000    0.0082    90   127  -161     0
   128    0.0000   -0.3000   -0.0250    0.0500   90.0000    0.0000    0.0082  -129   128   130     0
   129    0.0000   -0.2750   -0.0500    0.0500    0.0000   90.0000    0.0082    92   129  -163     0
   130    0.0000   -0.3000    0.0250    0.0500   90.0000    0.0000    0.0082  -131   130   132     0
   131    0.0000   -0.2750   -0.0000    0.0500    0.0000   90.0000    0.0082    94   131  -165     0
   132    0.0000   -0.3000    0.0750    0.0500   90.0000    0.0000    0.0082  -133   132   134     0
   133    0.0000   -0.2750    0.0500    0.0500    0.0000   90.0000    0.0082    96   133  -167     0
   134    0.0000   -0.3000    0.1250    0.0500   90.0000    0.0000    0.0082  -135   134   136     0
   135    0.0000   -0.2750    0.1000    0.0500    0.0000   90.0000    0.0082    98   135  -169     0
   136    0.0000   -0.3000    0.1750    0.0500   90.0000    0.0000    0.0082  -137   136   138     0
   137    0.0000   -0.2750    0.1500    0.0500    0.0000   90.0000    0.0082   100   137  -171     0
   138    0.0000   -0.3000    0.2250    0.0500   90.0000    0.0000    0.0082  -139   138   140     0
   139    0.0000   -0.2750    0.2000    0.0500    0.0000   90.0000    0.0082   102   139  -173     0
   140    0.0000   -0.3000    0.2750    0.0500   90.0000    0.0000    0.0082  -141   140   142     0
   141    0.0000   -0.2750    0.2500    0.0500    0.0000   90.0000    0.0082   104   141  -175     0
   142    0.0000   -0.3000    0.3250    0.0500   90.0000    0.0000    0.0082  -143   142   144     0
   143    0.0000   -0.2750    0.3000    0.0500    0.0000   90.0000    0.0082   106   143  -177     0
   144    0.0000   -0.3000    0.3750    0.0500   90.0000    0.0000    0.0082  -145   144   146     0
   145    0.0000   -0.2750    0.3500    0.0500    0.0000   90.0000    0.0082   108   145  -179     0
   146    0.0000   -0.3000    0.4250    0.0500   90.0000    0.0000    0.0082  -147   146   148     0
   147    0.0000   -0.2750    0.4000    0.0500    0.0000   90.0000    0.0082   110   147  -181     0
   148    0.0000   -0.2750    0.4500    0.0500    0.0000   90.0000    0.0082   111   148  -183     0
   149    0.0000   -0.2500   -0.4250    0.0500   90.0000    0.0000    0.0082  -150   149   151     0
   150    0.0000   -0.2250   -0.4500    0.0500    0.0000   90.0000    0.0082   113   150   186     0
   151    0.0000   -0.2500   -0.3750    0.0500   90.0000    0.0000    0.0082  -152   151   153     0
   152    0.0000   -0.2250   -0.4000    0.0500    0.0000   90.0000    0.0082   115   152  -186     0
   153    0.0000   -0.2500   -0.3250    0.0500   90.0000    0.0000    0.0082  -154   153   155     0
   154    0.0000   -0.2250   -0.3500    0.0500    0.0000   90.0000    0.0082   117   154  -188     0
   155    0.0000   -0.2500   -0.2750    0.0500   90.0000    0.0000    0.0082  -156   155   157     0
   156    0.0000   -0.2250   -0.3000    0.0500    0.0000   90.0000    0.0082   119   156  -190     0
   157    0.0000   -0.2500   -0.2250    0.0500   90.0000    0.0000    0.0082  -158   157   159     0
   158    0.0000   -0.2250   -0.2500    0.0500    0.0000   90.0000    0.0082   121   158  -192     0
   159    0.0000   -0.2500   -0.1750    0.0500   90.0000    0.0000    0.0082  -160   159   161     0
   160    0.0000   -0.2250   -0.2000    0.0500    0.0000   90.0000    0.0082   123   160  -194     0
   161    0.0000   -0.2500   -0.1250    0.0500   90.0000    0.0000    0.0082  -162   161   163     0
   162    0.0000   -0.2250   -0.1500    0.0500    0.0000   90.0000    0.0082   125   162  -196     0
   163    0.0000   -0.2500   -0.0750    0.0500   90.0000    0.0000    0.0082  -164   163   165     0
   164    0.0000   -0.2250   -0.1000    0.0500    0.0000   90.0000    0.0082   127   164  -198     0
   165    0.0000   -0.2500   -0.0250    0.0500   90.0000    0.0000    0.0082  -166   165   167     0
   166    0.0000   -0.2250   -0.0500    0.0500    0.0000   90.0000    0.0082   129   166  -200     0
   167    0.0000   -0.2500    0.0250    0.0500   90.0000    0.0000    0.0082  -168   167   169     0
   168    0.0000   -0.2250   -0.0000    0.0500    0.0000   90.0000    0.0082   131   168  -202     0
   169    0.0000   -0.2500    0.0750    0.0500   90.0000    0.0000    0.0082  -170   169   171     0
   170    0.0000   -0.2250    0.0500    0.0500    0.0000   90.0000    0.0082   133   170  -204     0
   171    0.0000   -0.2500    0.1250    0.0500   90.0000    0.0000    0.0082  -172   171   173     0
   172    0.0000   -0.2250    0.1000    0.0500    0.0000   90.0000    0.0082   135   172  -206     0
   173    0.0000   -0.2500    0.1750    0.0500   90.0000    0.0000    0.0082  -174   173   175     0
   174    0.0000   -0.2250    0.1500    0.0500    0.0000   90.0000    0.0082   137   174  -208     0
   175    0.0000   -0.2500    0.2250    0.0500   90.0000    0.0000    0.0082  -176   175   177     0
   176    0.0000   -0.2250    0.2000    0.0500    0.0000   90.0000    0.0082   139   176  -210     0
   177    0.0000   -0.2500    0.2750    0.0500   90.0000    0.0000    0.0082  -178   177   179     0
   178    0.0000   -0.2250    0.2500    0.0500    0.0000   90.0000    0.0082   141   178  -212     0
   179    0.0000   -0.2500    0.3250    0.0500   90.0000    0.0000    0.0082  -180   179   181     0
   180    0.0000   -0.2250    0.3000    0.0500    0.0000   90.0000    0.0082   143   180  -214     0
   181    0.0000   -0.2500    0.3750    0.0500   90.0000    0.0000    0.0082  -182   181   183     0
   182    0.0000   -0.2250    0.3500    0.0500    0.0000   90.0000    0.0082   145   182  -216     0
   183    0.0000   -0.2500    0.4250    0.0500   90.0000    0.0000    0.0082  -184   183   185     0
   184    0.0000   -0.2250    0.4000    0.0500    0.0000   90.0000    0.0082   147   184  -218     0
   185    0.0000   -0.2250    0.4500    0.0500    0.0000   90.0000    0.0082   148   185  -220     0
   186    0.0000   -0.2000   -0.4250    0.0500   90.0000    0.0000    0.0082  -187   186   188     0
   187    0.0000   -0.1750   -0.4500    0.0500    0.0000   90.0000    0.0082   150   187   223     0
   188    0.0000   -0.2000   -0.3750    0.0500   90.0000    0.0000    0.0082  -189   188   190     0
   189    0.0000   -0.1750   -0.4000    0.0500    0.0000   90.0000    0.0082   152   189  -223     0
   190    0.0000   -0.2000   -0.3250    0.0500   90.0000    0.0000    0.0082  -191   190   192     0
   191    0.0000   -0.1750   -0.3500    0.0500    0.0000   90.0000    0.0082   154   191  -225     0
   192    0.0000   -0.2000   -0.2750    0.0500   90.0000    0.0000    0.0082  -193   192   194     0
   193    0.0000   -0.1750   -0.3000    0.0500    0.0000   90.0000    0.0082   156   193  -227     0
   194    0.0000   -0.2000   -0.2250    0.0500   90.0000    0.0000    0.0082  -195   194   196     0
   195    0.0000   -0.1750   -0.2500    0.0500    0.0000   90.0000    0.0082   158   195  -229     0
   196    0.0000   -0.2000   -0.1750    0.0500   90.0000    0.0000    0.0082  -197   196   198     0
   197    0.0000   -0.1750   -0.2000    0.0500    0.0000   90.0000    0.0082   160   197  -231     0
   198    0.0000   -0.2000   -0.1250    0.0500   90.0000    0.0000    0.0082  -199   198   200     0
   199    0.0000   -0.1750   -0.1500    0.0500    0.0000   90.0000    0.0082   162   199  -233     0
   200    0.0000   -0.2000   -0.0750    0.0500   90.0000    0.0000    0.0082  -201   200   202     0
   201    0.0000   -0.1750   -0.1000    0.0500    0.0000   90.0000    0.0082   164   201  -235     0
   202    0.0000   -0.2000   -0.0250    0.0500   90.0000    0.0000    0.0082  -203   202   204     0
   203    0.0000   -0.1750   -0.0500    0.0500    0.0000   90.0000    0.0082   166   203  -237     0
   204    0.0000   -0.2000    0.0250    0.0500   90.0000    0.0000    0.0082  -205   204   206     0
   205    0.0000   -0.1750   -0.0000    0.0500    0.0000   90.0000    0.0082   168   205  -239     0
   206    0.0000   -0.2000    0.0750    0.0500   90.0000    0.0000    0.0082  -207   206   208     0
   207    0.0000   -0.1750    0.0500    0.0500    0.0000   90.0000    0.0082   170   207  -241     0
   208    0.0000   -0.2000    0.1250    0.0500   90.0000    0.0000    0.0082  -209   208   210     0
   209    0.0000   -0.1750    0.1000    0.0500    0.0000   90.0000    0.0082   172   209  -243     0
   210    0.0000   -0.2000    0.1750    0.0500   90.0000    0.0000    0.0082  -211   210   212     0
   211    0.0000   -0.1750    0.1500    0.0500    0.0000   90.0000    0.0082   174   211  -245     0
   212    0.0000   -0.2000    0.2250    0.0500   90.0000    0.0000    0.0082  -213   212   214     0
   213    0.0000   -0.1750    0.2000    0.0500    0.0000   90.0000    0.0082   176   213  -247     0
   214    0.0000   -0.2000    0.2750    0.0500   90.0000    0.0000    0.0082  -215   214   216     0
   215    0.0000   -0.1750    0.2500    0.0500    0.0000   90.0000    0.0082   178   215  -249     0
   216    0.0000   -0.2000    0.3250    0.0500   90.0000    0.0000    0.0082  -217   216   218     0
   217    0.0000   -0.1750    0.3000    0.0500    0.0000   90.0000    0.0082   180   217  -251     0
   218    0.0000   -0.2000    0.3750    0.0500   90.0000    0.0000    0.0082  -219   218   220     0
   219    0.0000   -0.1750    0.3500    0.0500    0.0000   90.0000    0.0082   182   219  -253     0
   220    0.0000   -0.2000    0.4250    0.0500   90.0000    0.0000    0.0082  -221   220   222     0
   221    0.0000   -0.1750    0.4000    0.0500    0.0000   90.0000    0.0082   184   221  -255     0
   222    0.0000   -0.1750    0.4500    0.0500    0.0000   90.0000    0.0082   185   222  -257     0
   223    0.0000   -0.1500   -0.4250    0.0500   90.0000    0.0000    0.0082  -224   223   225     0
   224    0.0000   -0.1250   -0.4500    0.0500    0.0000   90.0000    0.0082   187   224   260     0
   225    0.0000   -0.1500   -0.3750    0.0500   90.0000    0.0000    0.0082  -226   225   227     0
   226    0.0000   -0.1250   -0.4000    0.0500    0.0000   90.0000    0.0082   189   226  -260     0
   227    0.0000   -0.1500   -0.3250    0.0500   90.0000    0.0000    0.0082  -228   227   229     0
   228    0.0000   -0.1250   -0.3500    0.0500    0.0000   90.0000    0.0082   191   228  -262     0
   229    0.0000   -0.1500   -0.2750    0.0500   90.0000    0.0000    0.0082  -230   229   231     0
   230    0.0000   -0.1250   -0.3000    0.0500    0.0000   90.0000    0.0082   193   230  -264     0
   231    0.0000   -0.1500   -0.2250    0.0500   90.0000    0.0000    0.0082  -232   231   233     0
   232    0.0000   -0.1250   -0.2500    0.0500    0.0000   90.0000    0.0082   195   232  -266     0
   233    0.0000   -0.1500   -0.1750    0.0500   90.0000    0.0000    0.0082  -234   233   235     0
   234    0.0000   -0.1250   -0.2000    0.0500    0.0000   90.0000    0.0082   197   234  -268     0
   235    0.0000   -0.1500   -0.1250    0.0500   90.0000    0.0000    0.0082  -236   235   237     0
   236    0.0000   -0.1250   -0.1500    0.0500    0.0000   90.0000    0.0082   199   236  -270     0
   237    0.0000   -0.1500   -0.0750    0.0500   90.0000    0.0000    0.0082  -238   237   239     0
   238    0.0000   -0.1250   -0.1000    0.0500    0.0000   90.0000    0.0082   201   238  -272     0
   239    0.0000   -0.1500   -0.0250    0.0500   90.0000    0.0000    0.0082  -240   239   241     0
   240    0.0000   -0.1250   -0.0500    0.0500    0.0000   90.0000    0.0082   203   240  -274     0
   241    0.0000   -0.1500    0.0250    0.0500   90.0000    0.0000    0.0082  -242   241   243     0
   242    0.0000   -0.1250   -0.0000    0.0500    0.0000   90.0000    0.0082   205   242  -276     0
   243    0.0000   -0.1500    0.0750    0.0500   90.0000    0.0000    0.0082  -244   243   245     0
   244    0.0000   -0.1250    0.0500    0.0500    0.0000   90.0000    0.0082   207   244  -278     0
   245    0.0000   -0.1500    0.1250    0.0500   90.0000    0.0000    0.0082  -246   245   247     0
   246    0.0000   -0.1250    0.1000    0.0500    0.0000   90.0000    0.0082   209   246  -280     0
   247    0.0000   -0.1500    0.1750    0.0500   90.0000    0.0000    0.0082  -248   247   249     0
   248    0.0000   -0.1250    0.1500    0.0500    0.0000   90.0000    0.0082   211   248  -282     0
   249    0.0000   -0.1500    0.2250    0.0500   90.0000    0.0000    0.0082  -250   249   251     0
   250    0.0000   -0.1250    0.2000    0.0500    0.0000   90.0000    0.0082   213   250  -284     0
   251    0.0000   -0.1500    0.2750    0.0500   90.0000    0.0000    0.0082  -252   251   253     0
   252    0.0000   -0.1250    0.2500    0.0500    0.0000   90.0000    0.0082   215   252  -286     0
   253    0.0000   -0.1500    0.3250    0.0500   90.0000    0.0000    0.0082  -254   253   255     0
   254    0.0000   -0.1250    0.3000    0.0500    0.0000   90.0000    0.0082   217   254  -288     0
   255    0.0000   -0.1500    0.3750    0.0500   90.0000    0.0000    0.0082  -256   255   257     0
   256    0.0000   -0.1250    0.3500    0.0500    0.0000   90.0000    0.0082   219   256  -290     0
   257    0.0000   -0.1500    0.4250    0.0500   90.0000    0.0000    0.0082  -258   257   259     0
   258    0.0000   -0.1250    0.4000    0.0500    0.0000   90.0000    0.0082   221   258  -292     0
   259    0.0000   -0.1250    0.4500    0.0500    0.0000   90.0000    0.0082   222   259  -294     0
   260    0.0000   -0.1000   -0.4250    0.0500   90.0000    0.0000    0.0082  -261   260   262     0
   261    0.0000   -0.0750   -0.4500    0.0500    0.0000   90.0000    0.0082   224   261   297     0
   262    0.0000   -0.1000   -0.3750    0.0500   90.0000    0.0000    0.0082  -263   262   264     0
   263    0.0000   -0.0750   -0.4000    0.0500    0.0000   90.0000    0.0082   226   263  -297     0
   264    0.0000   -0.1000   -0.3250    0.0500   90.0000    0.0000    0.0082  -265   264   266     0
   265    0.0000   -0.0750   -0.3500    0.0500    0.0000   90.0000    0.0082   228   265  -299     0
   266    0.0000   -0.1000   -0.2750    0.0500   90.0000    0.0000    0.0082  -267   266   268     0
   267    0.0000   -0.0750   -0.3000    0.0500    0.0000   90.0000    0.0082   230   267  -301     0
   268    0.0000   -0.1000   -0.2250    0.0500   90.0000    0.0000    0.0082  -269   268   270     0
   269    0.0000   -0.0750   -0.2500    0.0500    0.0000   90.0000    0.0082   232   269  -303     0
   270    0.0000   -0.1000   -0.1750    0.0500   90.0000    0.0000    0.0082  -271   270   272     0
   271    0.0000   -0.0750   -0.2000    0.0500    0.0000   90.0000    0.0082   234   271  -305     0
   272    0.0000   -0.1000   -0.1250    0.0500   90.0000    0.0000    0.0082  -273   272   274     0
   273    0.0000   -0.0750   -0.1500    0.0500    0.0000   90.0000    0.0082   236   273  -307     0
   274    0.0000   -0.1000   -0.0750    0.0500   90.0000    0.0000    0.0082  -275   274   276     0
   275    0.0000   -0.0750   -0.1000    0.0500    0.0000   90.0000    0.0082   238   275  -309     0
   276    0.0000   -0.1000   -0.0250    0.0500   90.0000    0.0000    0.0082  -277   276   278     0
   277    0.0000   -0.0750   -0.0500    0.0500    0.0000   90.0000    0.0082   240   277  -311     0
   278    0.0000   -0.1000    0.0250    0.0500   90.0000    0.0000    0.0082  -279   278   280     0
   279    0.0000   -0.0750   -0.0000    0.0500    0.0000   90.0000    0.0082   242   279  -313     0
   280    0.0000   -0.1000    0.0750    0.0500   90.0000    0.0000    0.0082  -281   280   282     0
   281    0.0000   -0.0750    0.0500    0.0500    0.0000   90.0000    0.0082   244   281  -315     0
   282    0.0000   -0.1000    0.1250    0.0500   90.0000    0.0000    0.0082  -283   282   284     0
   283    0.0000   -0.0750    0.1000    0.0500    0.0000   90.0000    0.0082   246   283  -317     0
   284    0.0000   -0.1000    0.1750    0.0500   90.0000    0.0000    0.0082  -285   284   286     0
   285    0.0000   -0.0750    0.1500    0.0500    0.0000   90.0000    0.0082   248   285  -319     0
   286    0.0000   -0.1000    0.2250    0.0500   90.0000    0.0000    0.0082  -287   286   288     0
   287    0.0000   -0.0750    0.2000    0.0500    0.0000   90.0000    0.0082   250   287  -321     0
   288    0.0000   -0.1000    0.2750    0.0500   90.0000    0.0000    0.0082  -289   288   290     0
   289    0.0000   -0.0750    0.2500    0.0500    0.0000   90.0000    0.0082   252   289  -323     0
   290    0.0000   -0.1000    0.3250    0.0500   90.0000    0.0000    0.0082  -291   290   292     0
   291    0.0000   -0.0750    0.3000    0.0500    0.0000   90.0000    0.0082   254   291  -325     0
   292    0.0000   -0.1000    0.3750    0.0500   90.0000    0.0000    0.0082  -293   292   294     0
   293    0.0000   -0.0750    0.3500    0.0500    0.0000   90.0000    0.0082   256   293  -327     0
   294    0.0000   -0.1000    0.4250    0.0500   90.0000    0.0000    0.0082  -295   294   296     0
   295    0.0000   -0.0750    0.4000    0.0500    0.0000   90.0000    0.0082   258   295  -329     0
   296    0.0000   -0.0750    0.4500    0.0500    0.0000   90.0000    0.0082   259   296  -331     0
   297    0.0000   -0.0500   -0.4250    0.0500   90.0000    0.0000    0.0082  -298   297   299     0
   298    0.0000   -0.0250   -0.4500    0.0500    0.0000   90.0000    0.0082   261   298   334     0
   299    0.0000   -0.0500   -0.3750    0.0500   90.0000    0.0000    0.0082  -300   299   301     0
   300    0.0000   -0.0250   -0.4000    0.0500    0.0000   90.0000    0.0082   263   300  -334     0
   301    0.0000   -0.0500   -0.3250    0.0500   90.0000    0.0000    0.0082  -302   301   303     0
   302    0.0000   -0.0250   -0.3500    0.0500    0.0000   90.0000    0.0082   265   302  -336     0
   303    0.0000   -0.0500   -0.2750    0.0500   90.0000    0.0000    0.0082  -304   303   305     0
   304    0.0000   -0.0250   -0.3000    0.0500    0.0000   90.0000    0.0082   267   304  -338     0
   305    0.0000   -0.0500   -0.2250    0.0500   90.0000    0.0000    0.0082  -306   305   307     0
   306    0.0000   -0.0250   -0.2500    0.0500    0.0000   90.0000    0.0082   269   306  -340     0
   307    0.0000   -0.0500   -0.1750    0.0500   90.0000    0.0000    0.0082  -308   307   309     0
   308    0.0000   -0.0250   -0.2000    0.0500    0.0000   90.0000    0.0082   271   308  -342     0
   309    0.0000   -0.0500   -0.1250    0.0500   90.0000    0.0000    0.0082  -310   309   311     0
   310    0.0000   -0.0250   -0.1500    0.0500    0.0000   90.0000    0.0082   273   310  -344     0
   311    0.0000   -0.0500   -0.0750    0.0500   90.0000    0.0000    0.0082  -312   311   313     0
   312    0.0000   -0.0250   -0.1000    0.0500    0.0000   90.0000    0.0082   275   312  -346     0
   313    0.0000   -0.0500   -0.0250    0.0500   90.0000    0.0000    0.0082  -314   313   315     0
   314    0.0000   -0.0250   -0.0500    0.0500    0.0000   90.0000    0.0082   277   314  -348     0
   315    0.0000   -0.0500    0.0250    0.0500   90.0000    0.0000    0.0082  -316   315   317     0
   316    0.0000   -0.0250   -0.0000    0.0500    0.0000   90.0000    0.0082   279   316  -350     0
   317    0.0000   -0.0500    0.0750    0.0500   90.0000    0.0000    0.0082  -318   317   319     0
   318    0.0000   -0.0250    0.0500    0.0500    0.0000   90.0000    0.0082   281   318  -352     0
   319    0.0000   -0.0500    0.1250    0.0500   90.0000    0.0000    0.0082  -320   319   321     0
   320    0.0000   -0.0250    0.1000    0.0500    0.0000   90.0000    0.0082   283   320  -354     0
   321    0.0000   -0.0500    0.1750    0.0500   90.0000    0.0000    0.0082  -322   321   323     0
   322    0.0000   -0.0250    0.1500    0.0500    0.0000   90.0000    0.0082   285   322  -356     0
   323    0.0000   -0.0500    0.2250    0.0500   90.0000    0.0000    0.0082  -324   323   325     0
   324    0.0000   -0.0250    0.2000    0.0500    0.0000   90.0000    0.0082   287   324  -358     0
   325    0.0000   -0.0500    0.2750    0.0500   90.0000    0.0000    0.0082  -326   325   327     0
   326    0.0000   -0.0250    0.2500    0.0500    0.0000   90.0000    0.0082   289   326  -360     0
   327    0.0000   -0.0500    0.3250    0.0500   90.0000    0.0000    0.0082  -328   327   329     0
   328    0.0000   -0.0250    0.3000    0.0500    0.0000   90.0000    0.0082   291   328  -362     0
   329    0.0000   -0.0500    0.3750    0.0500   90.0000    0.0000    0.0082  -330   329   331     0
   330    0.0000   -0.0250    0.3500    0.0500    0.0000   90.0000    0.0082   293   330  -364     0
   331    0.0000   -0.0500    0.4250    0.0500   90.0000    0.0000    0.0082  -332   331   333     0
   332    0.0000   -0.0250    0.4000    0.0500    0.0000   90.0000    0.0082   295   332  -366     0
   333    0.0000   -0.0250    0.4500    0.0500    0.0000   90.0000    0.0082   296   333  -368     0
   334    0.0000   -0.0000   -0.4250    0.0500   90.0000    0.0000    0.0082  -335   334   336     0
   335    0.0000    0.0250   -0.4500    0.0500    0.0000   90.0000    0.0082   298   335   371     0
   336    0.0000   -0.0000   -0.3750    0.0500   90.0000    0.0000    0.0082  -337   336   338     0
   337    0.0000    0.0250   -0.4000    0.0500    0.0000   90.0000    0.0082   300   337  -371     0
   338    0.0000   -0.0000   -0.3250    0.0500   90.0000    0.0000    0.0082  -339   338   340     0
   339    0.0000    0.0250   -0.3500    0.0500    0.0000   90.0000    0.0082   302   339  -373     0
   340    0.0000   -0.0000   -0.2750    0.0500   90.0000    0.0000    0.0082  -341   340   342     0
   341    0.0000    0.0250   -0.3000    0.0500    0.0000   90.0000    0.0082   304   341  -375     0
   342    0.0000   -0.0000   -0.2250    0.0500   90.0000    0.0000    0.0082  -343   342   344     0
   343    0.0000    0.0250   -0.2500    0.0500    0.0000   90.0000    0.0082   306   343  -377     0
   344    0.0000   -0.0000   -0.1750    0.0500   90.0000    0.0000    0.0082  -345   344   346     0
   345    0.0000    0.0250   -0.2000    0.0500    0.0000   90.0000    0.0082   308   345  -379     0
   346    0.0000   -0.0000   -0.1250    0.0500   90.0000    0.0000    0.0082  -347   346   348     0
   347    0.0000    0.0250   -0.1500    0.0500    0.0000   90.0000    0.0082   310   347  -381     0
   348    0.0000   -0.0000   -0.0750    0.0500   90.0000    0.0000    0.0082  -349   348   350     0
   349    0.0000    0.0250   -0.1000    0.0500    0.0000   90.0000    0.0082   312   349  -383     0
   350    0.0000   -0.0000   -0.0250    0.0500   90.0000    0.0000    0.0082  -351   350   352     0
   351    0.0000    0.0250   -0.0500    0.0500    0.0000   90.0000    0.0082   314   351  -385     0
   352    0.0000   -0.0000    0.0250    0.0500   90.0000    0.0000    0.0082  -353   352   354     0
   353    0.0000    0.0250   -0.0000    0.0500    0.0000   90.0000    0.0082   316   353  -387     0
   354    0.0000   -0.0000    0.0750    0.0500   90.0000    0.0000    0.0082  -355   354   356     0
   355    0.0000    0.0250    0.0500    0.0500    0.0000   90.0000    0.0082   318   355  -389     0
   356    0.0000   -0.0000    0.1250    0.0500   90.0000    0.0000    0.0082  -357   356   358     0
   357    0.0000    0.0250    0.1000    0.0500    0.0000   90.0000    0.0082   320   357  -391     0
   358    0.0000   -0.0000    0.1750    0.0500   90.0000    0.0000    0.0082  -359   358   360     0
   359    0.0000    0.0250    0.1500    0.0500    0.0000   90.0000    0.0082   322   359  -393     0
   360    0.0000   -0.0000    0.2250    0.0500   90.0000    0.0000    0.0082  -361   360   362     0
   361    0.0000    0.0250    0.2000    0.0500    0.0000   90.0000    0.0082   324   361  -395     0
   362    0.0000   -0.0000    0.2750    0.0500   90.0000    0.0000    0.0082  -363   362   364     0
   363    0.0000    0.0250    0.2500    0.0500    0.0000   90.0000    0.0082   326   363  -397     0
   364    0.0000   -0.0000    0.3250    0.0500   90.0000    0.0000    0.0082  -365   364   366     0
   365    0.0000    0.0250    0.3000    0.0500    0.0000   90.0000    0.0082   328   365  -399     0
   366    0.0000   -0.0000    0.3750    0.0500   90.0000    0.0000    0.0082  -367   366   368     0
   367    0.0000    0.0250    0.3500    0.0500    0.0000   90.0000    0.0082   330   367  -401     0
   368    0.0000   -0.0000    0.4250    0.0500   90.0000    0.0000    0.0082  -369   368   370     0
   369    0.0000    0.0250    0.4000    0.0500    0.0000   90.0000    0.0082   332   369  -403     0
   370    0.0000    0.0250    0.4500    0.0500    0.0000   90.0000    0.0082   333   370  -405     0
   371    0.0000    0.0500   -0.4250    0.0500   90.0000    0.0000    0.0082  -372   371   373     0
   372    0.0000    0.0750   -0.4500    0.0500    0.0000   90.0000    0.0082   335   372   408     0
   373    0.0000    0.0500   -0.3750    0.0500   90.0000    0.0000    0.0082  -374   373   375     0
   374    0.0000    0.0750   -0.4000    0.0500    0.0000   90.0000    0.0082   337   374  -408     0
   375    0.0000    0.0500   -0.3250    0.0500   90.0000    0.0000    0.0082  -376   375   377     0
   376    0.0000    0.0750   -0.3500    0.0500    0.0000   90.0000    0.0082   339   376  -410     0
   377    0.0000    0.0500   -0.2750    0.0500   90.0000    0.0000    0.0082  -378   377   379     0
   378    0.0000    0.0750   -0.3000    0.0500    0.0000   90.0000    0.0082   341   378  -412     0
   379    0.0000    0.0500   -0.2250    0.0500   90.0000    0.0000    0.0082  -380   379   381     0
   380    0.0000    0.0750   -0.2500    0.0500    0.0000   90.0000    0.0082   343   380  -414     0
   381    0.0000    0.0500   -0.1750    0.0500   90.0000    0.0000    0.0082  -382   381   383     0
   382    0.0000    0.0750   -0.2000    0.0500    0.0000   90.0000    0.0082   345   382  -416     0
   383    0.0000    0.0500   -0.1250    0.0500   90.0000    0.0000    0.0082  -384   383   385     0
   384    0.0000    0.0750   -0.1500    0.0500    0.0000   90.0000    0.0082   347   384  -418     0
   385    0.0000    0.0500   -0.0750    0.0500   90.0000    0.0000    0.0082  -386   385   387     0
   386    0.0000    0.0750   -0.1000    0.0500    0.0000   90.0000    0.0082   349   386  -420     0
   387    0.0000    0.0500   -0.0250    0.0500   90.0000    0.0000    0.0082  -388   387   389     0
   388    0.0000    0.0750   -0.0500    0.0500    0.0000   90.0000    0.0082   351   388  -422     0
   389    0.0000    0.0500    0.0250    0.0500   90.0000    0.0000    0.0082  -390   389   391     0
   390    0.0000    0.0750   -0.0000    0.0500    0.0000   90.0000    0.0082   353   390  -424     0
   391    0.0000    0.0500    0.0750    0.0500   90.0000    0.0000    0.0082  -392   391   393     0
   392    0.0000    0.0750    0.0500    0.0500    0.0000   90.0000    0.0082   355   392  -426     0
   393    0.0000    0.0500    0.1250    0.0500   90.0000    0.0000    0.0082  -394   393   395     0
   394    0.0000    0.0750    0.1000    0.0500    0.0000   90.0000    0.0082   357   394  -428     0
   395    0.0000    0.0500    0.1750    0.0500   90.0000    0.0000    0.0082  -396   395   397     0
   396    0.0000    0.0750    0.1500    0.0500    0.0000   90.0000    0.0082   359   396  -430     0
   397    0.0000    0.0500    0.2250    0.0500   90.0000    0.0000    0.0082  -398   397   399     0
   398    0.0000    0.0750    0.2000    0.0500    0.0000   90.0000    0.0082   361   398  -432     0
   399    0.0000    0.0500    0.2750    0.0500   90.0000    0.0000    0.0082  -400   399   401     0
   400    0.0000    0.0750    0.2500    0.0500    0.0000   90.0000    0.0082   363   400  -434     0
   401    0.0000    0.0500    0.3250    0.0500   90.0000    0.0000    0.0082  -402   401   403     0
   402    0.0000    0.0750    0.3000    0.0500    0.0000   90.0000    0.0082   365   402  -436     0
   403    0.0000    0.0500    0.3750    0.0500   90.0000    0.0000    0.0082  -404   403   405     0
   404    0.0000    0.0750    0.3500    0.0500    0.0000   90.0000    0.0082   367   404  -438     0
   405    0.0000    0.0500    0.4250    0.0500   90.0000    0.0000    0.0082  -406   405   407     0
   406    0.0000    0.0750    0.4000    0.0500    0.0000   90.0000    0.0082   369   406  -440     0
   407    0.0000    0.0750    0.4500    0.0500    0.0000   90.0000    0.0082   370   407  -442     0
   408    0.0000    0.1000   -0.4250    0.0500   90.0000    0.0000    0.0082  -409   408   410     0
   409    0.0000    0.1250   -0.4500    0.0500    0.0000   90.0000    0.0082   372   409   445     0
   410    0.0000    0.1000   -0.3750    0.0500   90.0000    0.0000    0.0082  -411   410   412     0
   411    0.0000    0.1250   -0.4000    0.0500    0.0000   90.0000    0.0082   374   411  -445     0
   412    0.0000    0.1000   -0.3250    0.0500   90.0000    0.0000    0.0082  -413   412   414     0
   413    0.0000    0.1250   -0.3500    0.0500    0.0000   90.0000    0.0082   376   413  -447     0
   414    0.0000    0.1000   -0.2750    0.0500   90.0000    0.0000    0.0082  -415   414   416     0
   415    0.0000    0.1250   -0.3000    0.0500    0.0000   90.0000    0.0082   378   415  -449     0
   416    0.0000    0.1000   -0.2250    0.0500   90.0000    0.0000    0.0082  -417   416   418     0
   417    0.0000    0.1250   -0.2500    0.0500    0.0000   90.0000    0.0082   380   417  -451     0
   418    0.0000    0.1000   -0.1750    0.0500   90.0000    0.0000    0.0082  -419   418   420     0
   419    0.0000    0.1250   -0.2000    0.0500    0.0000   90.0000    0.0082   382   419  -453     0
   420    0.0000    0.1000   -0.1250    0.0500   90.0000    0.0000    0.0082  -421   420   422     0
   421    0.0000    0.1250   -0.1500    0.0500    0.0000   90.0000    0.0082   384   421  -455     0
   422    0.0000    0.1000   -0.0750    0.0500   90.0000    0.0000    0.0082  -423   422   424     0
   423    0.0000    0.1250   -0.1000    0.0500    0.0000   90.0000    0.0082   386   423  -457     0
   424    0.0000    0.1000   -0.0250    0.0500   90.0000    0.0000    0.0082  -425   424   426     0
   425    0.0000    0.1250   -0.0500    0.0500    0.0000   90.0000    0.0082   388   425  -459     0
   426    0.0000    0.1000    0.0250    0.0500   90.0000    0.0000    0.0082  -427   426   428     0
   427    0.0000    0.1250   -0.0000    0.0500    0.0000   90.0000    0.0082   390   427  -461     0
   428    0.0000    0.1000    0.0750    0.0500   90.0000    0.0000    0.0082  -429   428   430     0
   429    0.0000    0.1250    0.0500    0.0500    0.0000   90.0000    0.0082   392   429  -463     0
   430    0.0000    0.1000    0.1250    0.0500   90.0000    0.0000    0.0082  -431   430   432     0
   431    0.0000    0.1250    0.1000    0.0500    0.0000   90.0000    0.0082   394   431  -465     0
   432    0.0000    0.1000    0.1750    0.0500   90.0000    0.0000    0.0082  -433   432   434     0
   433    0.0000    0.1250    0.1500    0.0500    0.0000   90.0000    0.0082   396   433  -467     0
   434    0.0000    0.1000    0.2250    0.0500   90.0000    0.0000    0.0082  -435   434   436     0
   435    0.0000    0.1250    0.2000    0.0500    0.0000   90.0000    0.0082   398   435  -469     0
   436    0.0000    0.1000    0.2750    0.0500   90.0000    0.0000    0.0082  -437   436   438     0
   437    0.0000    0.1250    0.2500    0.0500    0.0000   90.0000    0.0082   400   437  -471     0
   438    0.0000    0.1000    0.3250    0.0500   90.0000    0.0000    0.0082  -439   438   440     0
   439    0.0000    0.1250    0.3000    0.0500    0.0000   90.0000    0.0082   402   439  -473     0
   440    0.0000    0.1000    0.3750    0.0500   90.0000    0.0000    0.0082  -441   440   442     0
   441    0.0000    0.1250    0.3500    0.0500    0.0000   90.0000    0.0082   404   441  -475     0
   442    0.0000    0.1000    0.4250    0.0500   90.0000    0.0000    0.0082  -443   442   444     0
   443    0.0000    0.1250    0.4000    0.0500    0.0000   90.0000    0.0082   406   443  -477     0
   444    0.0000    0.1250    0.4500    0.0500    0.0000   90.0000    0.0082   407   444  -479     0
   445    0.0000    0.1500   -0.4250    0.0500   90.0000    0.0000    0.0082  -446   445   447     0
   446    0.0000    0.1750   -0.4500    0.0500    0.0000   90.0000    0.0082   409   446   482     0
   447    0.0000    0.1500   -0.3750    0.0500   90.0000    0.0000    0.0082  -448   447   449     0
   448    0.0000    0.1750   -0.4000    0.0500    0.0000   90.0000    0.0082   411   448  -482     0
   449    0.0000    0.1500   -0.3250    0.0500   90.0000    0.0000    0.0082  -450   449   451     0
   450    0.0000    0.1750   -0.3500    0.0500    0.0000   90.0000    0.0082   413   450  -484     0
   451    0.0000    0.1500   -0.2750    0.0500   90.0000    0.0000    0.0082  -452   451   453     0
   452    0.0000    0.1750   -0.3000    0.0500    0.0000   90.0000    0.0082   415   452  -486     0
   453    0.0000    0.1500   -0.2250    0.0500   90.0000    0.0000    0.0082  -454   453   455     0
   454    0.0000    0.1750   -0.2500    0.0500    0.0000   90.0000    0.0082   417   454  -488     0
   455    0.0000    0.1500   -0.1750    0.0500   90.0000    0.0000    0.0082  -456   455   457     0
   456    0.0000    0.1750   -0.2000    0.0500    0.0000   90.0000    0.0082   419   456  -490     0
   457    0.0000    0.1500   -0.1250    0.0500   90.0000    0.0000    0.0082  -458   457   459     0
   458    0.0000    0.1750   -0.1500    0.0500    0.0000   90.0000    0.0082   421   458  -492     0
   459    0.0000    0.1500   -0.0750    0.0500   90.0000    0.0000    0.0082  -460   459   461     0
   460    0.0000    0.1750   -0.1000    0.0500    0.0000   90.0000    0.0082   423   460  -494     0
   461    0.0000    0.1500   -0.0250    0.0500   90.0000    0.0000    0.0082  -462   461   463     0
   462    0.0000    0.1750   -0.0500    0.0500    0.0000   90.0000    0.0082   425   462  -496     0
   463    0.0000    0.1500    0.0250    0.0500   90.0000    0.0000    0.0082  -464   463   465     0
   464    0.0000    0.1750   -0.0000    0.0500    0.0000   90.0000    0.0082   427   464  -498     0
   465    0.0000    0.1500    0.0750    0.0500   90.0000    0.0000    0.0082  -466   465   467     0
   466    0.0000    0.1750    0.0500    0.0500    0.0000   90.0000    0.0082   429   466  -500     0
   467    0.0000    0.1500    0.1250    0.0500   90.0000    0.0000    0.0082  -468   467   469     0
   468    0.0000    0.1750    0.1000    0.0500    0.0000   90.0000    0.0082   431   468  -502     0
   469    0.0000    0.1500    0.1750    0.0500   90.0000    0.0000    0.0082  -470   469   471     0
   470    0.0000    0.1750    0.1500    0.0500    0.0000   90.0000    0.0082   433   470  -504     0
   471    0.0000    0.1500    0.2250    0.0500   90.0000    0.0000    0.0082  -472   471   473     0
   472    0.0000    0.1750    0.2000    0.0500    0.0000   90.0000    0.0082   435   472  -506     0
   473    0.0000    0.1500    0.2750    0.0500   90.0000    0.0000    0.0082  -474   473   475     0
   474    0.0000    0.1750    0.2500    0.0500    0.0000   90.0000    0.0082   437   474  -508     0
   475    0.0000    0.1500    0.3250    0.0500   90.0000    0.0000    0.0082  -476   475   477     0
   476    0.0000    0.1750    0.3000    0.0500    0.0000   90.0000    0.0082   439   476  -510     0
   477    0.0000    0.1500    0.3750    0.0500   90.0000    0.0000    0.0082  -478   477   479     0
   478    0.0000    0.1750    0.3500    0.0500    0.0000   90.0000    0.0082   441   478  -512     0
   479    0.0000    0.1500    0.4250    0.0500   90.0000    0.0000    0.0082  -480   479   481     0
   480    0.0000    0.1750    0.4000    0.0500    0.0000   90.0000    0.0082   443   480  -514     0
   481    0.0000    0.1750    0.4500    0.0500    0.0000   90.0000    0.0082   444   481  -516     0
   482    0.0000    0.2000   -0.4250    0.0500   90.0000    0.0000    0.0082  -483   482   484     0
   483    0.0000    0.2250   -0.4500    0.0500    0.0000   90.0000    0.0082   446   483   519     0
   484    0.0000    0.2000   -0.3750    0.0500   90.0000    0.0000    0.0082  -485   484   486     0
   485    0.0000    0.2250   -0.4000    0.0500    0.0000   90.0000    0.0082   448   485  -519     0
   486    0.0000    0.2000   -0.3250    0.0500   90.0000    0.0000    0.0082  -487   486   488     0
   487    0.0000    0.2250   -0.3500    0.0500    0.0000   90.0000    0.0082   450   487  -521     0
   488    0.0000    0.2000   -0.2750    0.0500   90.0000    0.0000    0.0082  -489   488   490     0
   489    0.0000    0.2250   -0.3000    0.0500    0.0000   90.0000    0.0082   452   489  -523     0
   490    0.0000    0.2000   -0.2250    0.0500   90.0000    0.0000    0.0082  -491   490   492     0
   491    0.0000    0.2250   -0.2500    0.0500    0.0000   90.0000    0.0082   454   491  -525     0
   492    0.0000    0.2000   -0.1750    0.0500   90.0000    0.0000    0.0082  -493   492   494     0
   493    0.0000    0.2250   -0.2000    0.0500    0.0000   90.0000    0.0082   456   493  -527     0
   494    0.0000    0.2000   -0.1250    0.0500   90.0000    0.0000    0.0082  -495   494   496     0
   495    0.0000    0.2250   -0.1500    0.0500    0.0000   90.0000    0.0082   458   495  -529     0
   496    0.0000    0.2000   -0.0750    0.0500   90.0000    0.0000    0.0082  -497   496   498     0
   497    0.0000    0.2250   -0.1000    0.0500    0.0000   90.0000    0.0082   460   497  -531     0
   498    0.0000    0.2000   -0.0250    0.0500   90.0000    0.0000    0.0082  -499   498   500     0
   499    0.0000    0.2250   -0.0500    0.0500    0.0000   90.0000    0.0082   462   499  -533     0
   500    0.0000    0.2000    0.0250    0.0500   90.0000    0.0000    0.0082  -501   500   502     0
   501    0.0000    0.2250   -0.0000    0.0500    0.0000   90.0000    0.0082   464   501  -535     0
   502    0.0000    0.2000    0.0750    0.0500   90.0000    0.0000    0.0082  -503   502   504     0
   503    0.0000    0.2250    0.0500    0.0500    0.0000   90.0000    0.0082   466   503  -537     0
   504    0.0000    0.2000    0.1250    0.0500   90.0000    0.0000    0.0082  -505   504   506     0
   505    0.0000    0.2250    0.1000    0.0500    0.0000   90.0000    0.0082   468   505  -539     0
   506    0.0000    0.2000    0.1750    0.0500   90.0000    0.0000    0.0082  -507   506   508     0
   507    0.0000    0.2250    0.1500    0.0500    0.0000   90.0000    0.0082   470   507  -541     0
   508    0.0000    0.2000    0.2250    0.0500   90.0000    0.0000    0.0082  -509   508   510     0
   509    0.0000    0.2250    0.2000    0.0500    0.0000   90.0000    0.0082   472   509  -543     0
   510    0.0000    0.2000    0.2750    0.0500   90.0000    0.0000    0.0082  -511   510   512     0
   511    0.0000    0.2250    0.2500    0.0500    0.0000   90.0000    0.0082   474   511  -545     0
   512    0.0000    0.2000    0.3250    0.0500   90.0000    0.0000    0.0082  -513   512   514     0
   513    0.0000    0.2250    0.3000    0.0500    0.0000   90.0000    0.0082   476   513  -547     0
   514    0.0000    0.2000    0.3750    0.0500   90.0000    0.0000    0.0082  -515   514   516     0
   515    0.0000    0.2250    0.3500    0.0500    0.0000   90.0000    0.0082   478   515  -549     0
   516    0.0000    0.2000    0.4250    0.0500   90.0000    0.0000    0.0082  -517   516   518     0
   517    0.0000    0.2250    0.4000    0.0500    0.0000   90.0000    0.0082   480   517  -551     0
   518    0.0000    0.2250    0.4500    0.0500    0.0000   90.0000    0.0082   481   518  -553     0
   519    0.0000    0.2500   -0.4250    0.0500   90.0000   90.0000    0.0082  -520   519   521     0
[...]
  190.00    440.00     -9.96   -28.26    -9.89      0.1184      1.58  RIGHT  2.6213E-05    -86.00  3.1873E-06   -163.09
  195.00    440.00    -10.29   -23.37   -10.08      0.1826      7.20  RIGHT  2.5222E-05    -91.74  5.5987E-06   -148.39
  200.00    440.00    -10.71   -20.03   -10.23      0.2494     13.22  RIGHT  2.4029E-05    -99.48  8.2189E-06   -149.55
  205.00    440.00    -11.18   -17.52   -10.27      0.3107     20.42  RIGHT  2.2779E-05   -109.10  1.0973E-05   -155.54
  210.00    440.00    -11.63   -15.45   -10.12      0.3449     29.17  RIGHT  2.1619E-05   -120.32  1.3930E-05   -162.93
  215.00    440.00    -12.03   -13.70    -9.78      0.3310     38.14  RIGHT  2.0652E-05   -132.68  1.7033E-05   -170.11
  220.00    440.00    -12.35   -12.29    -9.31      0.2757     45.24  RIGHT  1.9904E-05   -145.55  2.0047E-05   -176.37
  225.00    440.00    -12.61   -11.24    -8.86      0.2033     49.90  RIGHT  1.9314E-05   -158.26  2.2622E-05   -181.55
  230.00    440.00    -12.87   -10.58    -8.56      0.1312     52.73  RIGHT  1.8748E-05   -170.25  2.4402E-05   -185.73
  235.00    440.00    -13.21   -10.32    -8.52      0.0661     54.42  RIGHT  1.8035E-05   -181.08  2.5130E-05   -189.07
  240.00    440.00    -13.72   -10.46    -8.78      0.0096     55.50  RIGHT  1.6997E-05   -190.54  2.4727E-05   -191.72
  245.00    440.00    -14.53   -10.98    -9.39      0.0376     56.44   LEFT  1.5485E-05   -198.50  2.3315E-05   -193.82
  250.00    440.00    -15.79   -11.80   -10.34      0.0746     57.87   LEFT  1.3400E-05   -204.94  2.1208E-05   -195.48
  255.00    440.00    -17.73   -12.82   -11.61      0.0984     60.70   LEFT  1.0718E-05   -209.89  1.8844E-05   -196.78
  260.00    440.00    -20.83   -13.87   -13.07      0.1018     66.38   LEFT  7.4941E-06   -213.37  1.6707E-05   -197.73
  265.00    440.00    -26.60   -14.68   -14.41      0.0704     76.32   LEFT  3.8580E-06   -215.45  1.5226E-05   -198.33
  270.00    440.00   -999.99   -14.98   -14.98      0.0000    -90.00 LINEAR  6.8423E-16   -396.02  1.4697E-05   -198.54
  -90.00    445.00   -999.99   -13.11   -13.11      0.0000     90.00 LINEAR  1.9491E-16   -208.40  1.8228E-05   -191.96
  -85.00    445.00    -27.91   -12.87   -12.74      0.0458    -80.30  RIGHT  3.3172E-06   -387.18  1.8738E-05   -191.75
  -80.00    445.00    -22.11   -12.24   -11.81      0.0692    -72.61  RIGHT  6.4677E-06   -384.81  2.0165E-05   -191.12
  -75.00    445.00    -18.94   -11.40   -10.69      0.0669    -67.50  RIGHT  9.3165E-06   -380.87  2.2214E-05   -190.11
  -70.00    445.00    -16.90   -10.56    -9.65      0.0452    -64.37  RIGHT  1.1784E-05   -375.36  2.4459E-05   -188.73
  -65.00    445.00    -15.50    -9.89    -8.83      0.0101    -62.33  RIGHT  1.3854E-05   -368.35  2.6422E-05   -186.94
  -60.00    445.00    -14.48    -9.49    -8.29      0.0350    -60.68   LEFT  1.5568E-05   -359.98  2.7668E-05   -184.67
  -55.00    445.00    -13.72    -9.42    -8.05      0.0881    -58.87   LEFT  1.7000E-05   -350.46  2.7893E-05   -181.80
  -50.00    445.00    -13.11    -9.71    -8.07      0.1473    -56.46   LEFT  1.8233E-05   -340.06  2.6982E-05   -178.17
  -45.00    445.00    -12.60   -10.36    -8.33      0.2094    -52.99   LEFT  1.9340E-05   -329.10  2.5028E-05   -173.60
  -40.00    445.00    -12.14   -11.36    -8.72      0.2669    -47.96   LEFT  2.0385E-05   -317.89  2.2299E-05   -167.90
  -35.00    445.00    -11.71   -12.68    -9.16      0.3056    -41.15   LEFT  2.1422E-05   -306.75  1.9161E-05   -160.98
  -30.00    445.00    -11.29   -14.27    -9.52      0.3107    -33.19   LEFT  2.2493E-05   -296.05  1.5964E-05   -152.95
  -25.00    445.00    -10.87   -16.10    -9.73      0.2808    -25.45   LEFT  2.3609E-05   -286.20  1.2929E-05   -144.36
  -20.00    445.00    -10.46   -18.26    -9.79      0.2302    -18.67   LEFT  2.4737E-05   -277.58  1.0083E-05   -136.30
  -15.00    445.00    -10.10   -21.06    -9.76      0.1730    -12.64   LEFT  2.5796E-05   -270.53  7.2988E-06   -130.40
  -10.00    445.00     -9.81   -25.39    -9.69      0.1149     -6.85   LEFT  2.6675E-05   -265.28  4.4344E-06   -129.81
   -5.00    445.00     -9.61   -34.09    -9.60      0.0571     -0.99   LEFT  2.7271E-05   -261.96  1.6285E-06   -155.12
    0.00    445.00     -9.54   -30.70    -9.50      0.0000      5.00 LINEAR  2.7520E-05   -260.62  2.4077E-06   -260.62
    5.00    445.00     -9.57   -23.42    -9.39      0.0549     11.06  RIGHT  2.7419E-05   -261.25  5.5665E-06   -277.56
   10.00    445.00     -9.69   -19.47    -9.26      0.1058     17.06  RIGHT  2.7023E-05   -263.76  8.7679E-06   -284.64
   15.00    445.00     -9.89   -16.85    -9.09      0.1521     22.93  RIGHT  2.6425E-05   -267.96  1.1852E-05   -291.42
   20.00    445.00    -10.13   -14.89    -8.87      0.1937     28.71  RIGHT  2.5712E-05   -273.56  1.4853E-05   -299.09
   25.00    445.00    -10.39   -13.27    -8.59      0.2294     34.60  RIGHT  2.4929E-05   -280.15  1.7901E-05   -307.53
   30.00    445.00    -10.71   -11.83    -8.22      0.2543     40.77  RIGHT  2.4050E-05   -287.33  2.1119E-05   -316.13
   35.00    445.00    -11.09   -10.54    -7.80      0.2622     47.09  RIGHT  2.2998E-05   -294.75  2.4505E-05   -324.19
   40.00    445.00    -11.60    -9.42    -7.37      0.2498     53.09  RIGHT  2.1688E-05   -302.22  2.7880E-05   -331.25
   45.00    445.00    -12.28    -8.52    -7.00      0.2205     58.33  RIGHT  2.0070E-05   -309.69  3.0921E-05   -337.10
   50.00    445.00    -13.15    -7.89    -6.75      0.1809     62.64  RIGHT  1.8158E-05   -317.18  3.3270E-05   -341.80
   55.00    445.00    -14.23    -7.53    -6.69      0.1374     66.13  RIGHT  1.6025E-05   -324.73  3.4650E-05   -345.46
   60.00    445.00    -15.55    -7.46    -6.83      0.0946     69.05  RIGHT  1.3770E-05   -332.30  3.4940E-05   -348.26
   65.00    445.00    -17.13    -7.64    -7.18      0.0557     71.69  RIGHT  1.1481E-05   -339.72  3.4222E-05   -350.33
   70.00    445.00    -19.05    -8.02    -7.69      0.0234     74.36  RIGHT  9.2043E-06   -346.64  3.2762E-05   -351.80
   75.00    445.00    -21.50    -8.51    -8.30      0.0005     77.37  RIGHT  6.9380E-06   -352.63  3.0957E-05   -352.78
   80.00    445.00    -24.97    -9.01    -8.90      0.0105     80.97   LEFT  4.6567E-06   -357.26  2.9250E-05   -353.37
   85.00    445.00    -30.94    -9.37    -9.34      0.0094     85.26   LEFT  2.3418E-06   -360.17  2.8040E-05   -353.67
   90.00    445.00   -999.99    -9.51    -9.51      0.0000    -90.00 LINEAR  1.3827E-16   -180.82  2.7604E-05   -353.76
   95.00    445.00    -30.94    -9.37    -9.34      0.0094    -85.26  RIGHT  2.3418E-06   -180.17  2.8040E-05   -353.67
  100.00    445.00    -24.97    -9.01    -8.90      0.0105    -80.97  RIGHT  4.6567E-06   -177.26  2.9250E-05   -353.37
  105.00    445.00    -21.50    -8.51    -8.30      0.0005    -77.37   LEFT  6.9380E-06   -172.63  3.0957E-05   -352.78
  110.00    445.00    -19.05    -8.02    -7.69      0.0234    -74.36   LEFT  9.2043E-06   -166.64  3.2762E-05   -351.80
  115.00    445.00    -17.13    -7.64    -7.18      0.0557    -71.69   LEFT  1.1481E-05   -159.72  3.4222E-05   -350.33
  120.00    445.00    -15.55    -7.46    -6.83      0.0946    -69.05   LEFT  1.3770E-05   -152.30  3.4940E-05   -348.26
  125.00    445.00    -14.23    -7.53    -6.69      0.1374    -66.13   LEFT  1.6025E-05   -144.73  3.4650E-05   -345.46
  130.00    445.00    -13.15    -7.89    -6.75      0.1809    -62.64   LEFT  1.8158E-05   -137.18  3.3270E-05   -341.80
  135.00    445.00    -12.28    -8.52    -7.00      0.2205    -58.33   LEFT  2.0070E-05   -129.69  3.0921E-05   -337.10
  140.00    445.00    -11.60    -9.42    -7.37      0.2498    -53.09   LEFT  2.1688E-05   -122.22  2.7880E-05   -331.25
  145.00    445.00    -11.09   -10.54    -7.80      0.2622    -47.09   LEFT  2.2998E-05   -114.75  2.4505E-05   -324.19
  150.00    445.00    -10.71   -11.83    -8.22      0.2543    -40.77   LEFT  2.4050E-05   -107.33  2.1119E-05   -316.13
  155.00    445.00    -10.39   -13.27    -8.59      0.2294    -34.60   LEFT  2.4929E-05   -100.15  1.7901E-05   -307.53
  160.00    445.00    -10.13   -14.89    -8.87      0.1937    -28.71   LEFT  2.5712E-05    -93.56  1.4853E-05   -299.09
  165.00    445.00     -9.89   -16.85    -9.09      0.1521    -22.93   LEFT  2.6425E-05    -87.96  1.1852E-05   -291.42
  170.00    445.00     -9.69   -19.47    -9.26      0.1058    -17.06   LEFT  2.7023E-05    -83.76  8.7679E-06   -284.64
  175.00    445.00     -9.57   -23.42    -9.39      0.0549    -11.06   LEFT  2.7419E-05    -81.25  5.5665E-06   -277.56
  180.00    445.00     -9.54   -30.70    -9.50      0.0000     -5.00 LINEAR  2.7520E-05    -80.62  2.4077E-06   -260.62
  185.00    445.00     -9.61   -34.09    -9.60      0.0571      0.99  RIGHT  2.7271E-05    -81.96  1.6285E-06   -155.12
  190.00    445.00     -9.81   -25.39    -9.69      0.1149      6.85  RIGHT  2.6675E-05    -85.28  4.4344E-06   -129.81
  195.00    445.00    -10.10   -21.06    -9.76      0.1730     12.64  RIGHT  2.5796E-05    -90.53  7.2988E-06   -130.40
  200.00    445.00    -10.46   -18.26    -9.79      0.2302     18.67  RIGHT  2.4737E-05    -97.58  1.0083E-05   -136.30
  205.00    445.00    -10.87   -16.10    -9.73      0.2808     25.45  RIGHT  2.3609E-05   -106.20  1.2929E-05   -144.36
  210.00    445.00    -11.29   -14.27    -9.52      0.3107     33.19  RIGHT  2.2493E-05   -116.05  1.5964E-05   -152.95
  215.00    445.00    -11.71   -12.68    -9.16      0.3056     41.15  RIGHT  2.1422E-05   -126.75  1.9161E-05   -160.98
  220.00    445.00    -12.14   -11.36    -8.72      0.2669     47.96  RIGHT  2.0385E-05   -137.89  2.2299E-05   -167.90
  225.00    445.00    -12.60   -10.36    -8.33      0.2094     52.99  RIGHT  1.9340E-05   -149.10  2.5028E-05   -173.60
  230.00    445.00    -13.11    -9.71    -8.07      0.1473     56.46  RIGHT  1.8233E-05   -160.06  2.6982E-05   -178.17
  235.00    445.00    -13.72    -9.42    -8.05      0.0881     58.87  RIGHT  1.7000E-05   -170.46  2.7893E-05   -181.80
  240.00    445.00    -14.48    -9.49    -8.29      0.0350     60.68  RIGHT  1.5568E-05   -179.98  2.7668E-05   -184.67
  245.00    445.00    -15.50    -9.89    -8.83      0.0101     62.33   LEFT  1.3854E-05   -188.35  2.6422E-05   -186.94
  250.00    445.00    -16.90   -10.56    -9.65      0.0452     64.37   LEFT  1.1784E-05   -195.36  2.4459E-05   -188.73
  255.00    445.00    -18.94   -11.40   -10.69      0.0669     67.50   LEFT  9.3165E-06   -200.87  2.2214E-05   -190.11
  260.00    445.00    -22.11   -12.24   -11.81      0.0692     72.61   LEFT  6.4677E-06   -204.81  2.0165E-05   -191.12
  265.00    445.00    -27.91   -12.87   -12.74      0.0458     80.30   LEFT  3.3172E-06   -207.18  1.8738E-05   -191.75
  270.00    445.00   -999.99   -13.11   -13.11      0.0000    -90.00 LINEAR  5.8783E-16   -387.83  1.8228E-05   -191.96
  -90.00    450.00   -999.99   -11.30   -11.30      0.0000     90.00 LINEAR  1.6368E-16   -197.38  2.2466E-05   -183.45
  -85.00    450.00    -29.40   -11.11   -11.05      0.0263    -83.22  RIGHT  2.7957E-06   -375.94  2.2946E-05   -183.29
  -80.00    450.00    -23.54   -10.62   -10.41      0.0390    -77.45  RIGHT  5.4891E-06   -373.24  2.4285E-05   -182.81
  -75.00    450.00    -20.26    -9.96    -9.58      0.0334    -73.10  RIGHT  8.0067E-06   -368.83  2.6194E-05   -181.97
  -70.00    450.00    -18.05    -9.31    -8.76      0.0118    -69.94  RIGHT  1.0322E-05   -362.84  2.8256E-05   -180.74
  -65.00    450.00    -16.42    -8.78    -8.09      0.0218    -67.49   LEFT  1.2451E-05   -355.51  3.0007E-05   -179.05
  -60.00    450.00    -15.14    -8.49    -7.64      0.0642    -65.26   LEFT  1.4429E-05   -347.18  3.1027E-05   -176.81
  -55.00    450.00    -14.09    -8.49    -7.44      0.1127    -62.82   LEFT  1.6283E-05   -338.21  3.1026E-05   -173.90
  -50.00    450.00    -13.22    -8.81    -7.47      0.1646    -59.79   LEFT  1.8009E-05   -328.90  2.9904E-05   -170.17
  -45.00    450.00    -12.49    -9.46    -7.70      0.2157    -55.81   LEFT  1.9582E-05   -319.48  2.7767E-05   -165.43
  -40.00    450.00    -11.89   -10.41    -8.08      0.2586    -50.58   LEFT  2.0979E-05   -310.05  2.4892E-05   -159.52
  -35.00    450.00    -11.40   -11.62    -8.50      0.2829    -44.14   LEFT  2.2208E-05   -300.74  2.1645E-05   -152.35
  -30.00    450.00    -10.98   -13.05    -8.88      0.2807    -37.05   LEFT  2.3308E-05   -291.70  1.8367E-05   -144.07
  -25.00    450.00    -10.60   -14.66    -9.16      0.2537    -30.15   LEFT  2.4331E-05   -283.20  1.5260E-05   -135.18
  -20.00    450.00    -10.26   -16.51    -9.34      0.2115    -23.82   LEFT  2.5303E-05   -275.60  1.2333E-05   -126.53
  -15.00    450.00     -9.96   -18.82    -9.43      0.1627    -17.88   LEFT  2.6200E-05   -269.27  9.4514E-06   -119.03
  -10.00    450.00     -9.72   -22.12    -9.48      0.1107    -12.01   LEFT  2.6947E-05   -264.53  6.4608E-06   -113.37
   -5.00    450.00     -9.56   -27.97    -9.50      0.0562     -6.05   LEFT  2.7448E-05   -261.61  3.2937E-06   -109.89
    0.00    450.00     -9.50  -999.99    -9.50      0.0000     -0.00 LINEAR  2.7625E-05   -260.62  7.0533E-16    -80.63
    5.00    450.00     -9.56   -27.97    -9.50      0.0562      6.05  RIGHT  2.7448E-05   -261.61  3.2937E-06   -289.89
   10.00    450.00     -9.72   -22.12    -9.48      0.1107     12.01  RIGHT  2.6947E-05   -264.53  6.4608E-06   -293.37
   15.00    450.00     -9.96   -18.82    -9.43      0.1627     17.88  RIGHT  2.6200E-05   -269.27  9.4514E-06   -299.03
   20.00    450.00    -10.26   -16.51    -9.34      0.2115     23.82  RIGHT  2.5303E-05   -275.60  1.2333E-05   -306.53
   25.00    450.00    -10.60   -14.66    -9.16      0.2537     30.15  RIGHT  2.4331E-05   -283.20  1.5260E-05   -315.18
   30.00    450.00    -10.98   -13.05    -8.88      0.2807     37.05  RIGHT  2.3308E-05   -291.70  1.8367E-05   -324.07
   35.00    450.00    -11.40   -11.62    -8.50      0.2829     44.14  RIGHT  2.2208E-05   -300.74  2.1645E-05   -332.35
   40.00    450.00    -11.89   -10.41    -8.08      0.2586     50.58  RIGHT  2.0979E-05   -310.05  2.4892E-05   -339.52
   45.00    450.00    -12.49    -9.46    -7.70      0.2157     55.81  RIGHT  1.9582E-05   -319.48  2.7767E-05   -345.43
   50.00    450.00    -13.22    -8.81    -7.47      0.1646     59.79  RIGHT  1.8009E-05   -328.90  2.9904E-05   -350.17
   55.00    450.00    -14.09    -8.49    -7.44      0.1127     62.82  RIGHT  1.6283E-05   -338.21  3.1026E-05   -353.90
   60.00    450.00    -15.14    -8.49    -7.64      0.0642     65.26  RIGHT  1.4429E-05   -347.18  3.1027E-05   -356.81
   65.00    450.00    -16.42    -8.78    -8.09      0.0218     67.49  RIGHT  1.2451E-05   -355.51  3.0007E-05   -359.05
   70.00    450.00    -18.05    -9.31    -8.76      0.0118     69.94   LEFT  1.0322E-05   -362.84  2.8256E-05   -360.74
   75.00    450.00    -20.26    -9.96    -9.58      0.0334     73.10   LEFT  8.0067E-06   -368.83  2.6194E-05   -361.97
   80.00    450.00    -23.54   -10.62   -10.41      0.0390     77.45   LEFT  5.4891E-06   -373.24  2.4285E-05   -362.81
   85.00    450.00    -29.40   -11.11   -11.05      0.0263     83.22   LEFT  2.7957E-06   -375.94  2.2946E-05   -363.29
   90.00    450.00   -999.99   -11.30   -11.30      0.0000    -90.00 LINEAR  1.6550E-16   -196.59  2.2466E-05   -363.45
   95.00    450.00    -29.40   -11.11   -11.05      0.0263    -83.22  RIGHT  2.7957E-06   -195.94  2.2946E-05   -363.29
  100.00    450.00    -23.54   -10.62   -10.41      0.0390    -77.45  RIGHT  5.4891E-06   -193.24  2.4285E-05   -362.81
  105.00    450.00    -20.26    -9.96    -9.58      0.0334    -73.10  RIGHT  8.0067E-06   -188.83  2.6194E-05   -361.97
  110.00    450.00    -18.05    -9.31    -8.76      0.0118    -69.94  RIGHT  1.0322E-05   -182.84  2.8256E-05   -360.74
  115.00    450.00    -16.42    -8.78    -8.09      0.0218    -67.49   LEFT  1.2451E-05   -175.51  3.0007E-05   -359.05
  120.00    450.00    -15.14    -8.49    -7.64      0.0642    -65.26   LEFT  1.4429E-05   -167.18  3.1027E-05   -356.81
  125.00    450.00    -14.09    -8.49    -7.44      0.1127    -62.82   LEFT  1.6283E-05   -158.21  3.1026E-05   -353.90
  130.00    450.00    -13.22    -8.81    -7.47      0.1646    -59.79   LEFT  1.8009E-05   -148.90  2.9904E-05   -350.17
  135.00    450.00    -12.49    -9.46    -7.70      0.2157    -55.81   LEFT  1.9582E-05   -139.48  2.7767E-05   -345.43
  140.00    450.00    -11.89   -10.41    -8.08      0.2586    -50.58   LEFT  2.0979E-05   -130.05  2.4892E-05   -339.52
  145.00    450.00    -11.40   -11.62    -8.50      0.2829    -44.14   LEFT  2.2208E-05   -120.74  2.1645E-05   -332.35
  150.00    450.00    -10.98   -13.05    -8.88      0.2807    -37.05   LEFT  2.3308E-05   -111.70  1.8367E-05   -324.07
  155.00    450.00    -10.60   -14.66    -9.16      0.2537    -30.15   LEFT  2.4331E-05   -103.20  1.5260E-05   -315.18
  160.00    450.00    -10.26   -16.51    -9.34      0.2115    -23.82   LEFT  2.5303E-05    -95.60  1.2333E-05   -306.53
  165.00    450.00     -9.96   -18.82    -9.43      0.1627    -17.88   LEFT  2.6200E-05    -89.27  9.4514E-06   -299.03
  170.00    450.00     -9.72   -22.12    -9.48      0.1107    -12.01   LEFT  2.6947E-05    -84.53  6.4608E-06   -293.37
  175.00    450.00     -9.56   -27.97    -9.50      0.0562     -6.05   LEFT  2.7448E-05    -81.61  3.2937E-06   -289.89
  180.00    450.00     -9.50  -999.99    -9.50      0.0000      0.00 LINEAR  2.7625E-05    -80.62  1.0627E-15    -90.52
  185.00    450.00     -9.56   -27.97    -9.50      0.0562      6.05  RIGHT  2.7448E-05    -81.61  3.2937E-06   -109.89
  190.00    450.00     -9.72   -22.12    -9.48      0.1107     12.01  RIGHT  2.6947E-05    -84.53  6.4608E-06   -113.37
  195.00    450.00     -9.96   -18.82    -9.43      0.1627     17.88  RIGHT  2.6200E-05    -89.27  9.4514E-06   -119.03
  200.00    450.00    -10.26   -16.51    -9.34      0.2115     23.82  RIGHT  2.5303E-05    -95.60  1.2333E-05   -126.53
  205.00    450.00    -10.60   -14.66    -9.16      0.2537     30.15  RIGHT  2.4331E-05   -103.20  1.5260E-05   -135.18
  210.00    450.00    -10.98   -13.05    -8.88      0.2807     37.05  RIGHT  2.3308E-05   -111.70  1.8367E-05   -144.07
  215.00    450.00    -11.40   -11.62    -8.50      0.2829     44.14  RIGHT  2.2208E-05   -120.74  2.1645E-05   -152.35
  220.00    450.00    -11.89   -10.41    -8.08      0.2586     50.58  RIGHT  2.0979E-05   -130.05  2.4892E-05   -159.52
  225.00    450.00    -12.49    -9.46    -7.70      0.2157     55.81  RIGHT  1.9582E-05   -139.48  2.7767E-05   -165.43
  230.00    450.00    -13.22    -8.81    -7.47      0.1646     59.79  RIGHT  1.8009E-05   -148.90  2.9904E-05   -170.17
  235.00    450.00    -14.09    -8.49    -7.44      0.1127     62.82  RIGHT  1.6283E-05   -158.21  3.1026E-05   -173.90
  240.00    450.00    -15.14    -8.49    -7.64      0.0642     65.26  RIGHT  1.4429E-05   -167.18  3.1027E-05   -176.81
  245.00    450.00    -16.42    -8.78    -8.09      0.0218     67.49  RIGHT  1.2451E-05   -175.51  3.0007E-05   -179.05
  250.00    450.00    -18.05    -9.31    -8.76      0.0118     69.94   LEFT  1.0322E-05   -182.84  2.8256E-05   -180.74
  255.00    450.00    -20.26    -9.96    -9.58      0.0334     73.10   LEFT  8.0067E-06   -188.83  2.6194E-05   -181.97
  260.00    450.00    -23.54   -10.62   -10.41      0.0390     77.45   LEFT  5.4891E-06   -193.24  2.4285E-05   -182.81
  265.00    450.00    -29.40   -11.11   -11.05      0.0263     83.22   LEFT  2.7957E-06   -195.94  2.2946E-05   -183.29
  270.00    450.00   -999.99   -11.30   -11.30      0.0000    -90.00 LINEAR  4.9456E-16   -376.66  2.2466E-05   -183.45


  AVERAGE POWER GAIN:  2.2467E+11 - SOLID ANGLE USED IN AVERAGING: (+0.0000)*PI STERADIANS



*****  DATA CARD N0.   4 XQ   0     0     0     0  0.00000E+00  0.00000E+00  0.00000E+00  0.00000E+00  0.00000E+00  0.00000E+00
*****  DATA CARD N0.   5 EN   0     0     0     0  0.00000E+00  0.00000E+00  0.00000E+00  0.00000E+00  0.00000E+00  0.00000E+00

  TOTAL RUN TIME: 214140 msec